# CIF file created by FINDSYM, version 7.1.3

data_findsym-output
_audit_creation_method FINDSYM

_cell_length_a     15.1955683624
_cell_length_b     8.7731652838
_cell_length_c     20.7828006246
_cell_angle_alpha  90.0000000000
_cell_angle_beta   104.1061723083
_cell_angle_gamma  90.0000000000
_cell_volume       2687.0763433050

_symmetry_space_group_name_H-M "C 1 2/m 1"
_symmetry_Int_Tables_number 12
_space_group.reference_setting '012:-C 2y'
_space_group.transform_Pp_abc a,b,c;0,0,0

loop_
_space_group_symop_id
_space_group_symop_operation_xyz
1 x,y,z
2 -x,y,-z
3 -x,-y,-z
4 x,-y,z
5 x+1/2,y+1/2,z
6 -x+1/2,y+1/2,-z
7 -x+1/2,-y+1/2,-z
8 x+1/2,-y+1/2,z

loop_
_atom_type_symbol
Bi    
Te    

loop_
_atom_site_label
_atom_site_type_symbol
_atom_site_symmetry_multiplicity
_atom_site_Wyckoff_symbol
_atom_site_fract_x
_atom_site_fract_y
_atom_site_fract_z
_atom_site_occupancy
_atom_site_fract_symmform
Bi1 Bi   4 i -0.0675250000  0.0000000000  0.8311700000  1.0000000000 Dx,0,Dz  
Bi2 Bi   4 i  0.5521250000  0.0000000000  0.1496000000  1.0000000000 Dx,0,Dz  
Bi3 Bi   4 i -0.0531675000  0.0000000000  0.3490950000  1.0000000000 Dx,0,Dz  
Bi4 Bi   8 j  0.8119050000  0.2493600000  0.1519700000  1.0000000000 Dx,Dy,Dz 
Bi5 Bi   8 j  0.2196787500  0.2436237500  0.3582225000  1.0000000000 Dx,Dy,Dz 
Te1 Te   4 i  0.6405100000  0.0000000000 -0.0627600000  1.0000000000 Dx,0,Dz  
Te2 Te   4 i  0.8342700000  0.0000000000  0.5482300000  1.0000000000 Dx,0,Dz  
Te3 Te   4 i  0.6706425000  0.0000000000  0.4500800000  1.0000000000 Dx,0,Dz  
Te4 Te   4 i  0.8692300000  0.0000000000  0.0691700000  1.0000000000 Dx,0,Dz  
Te5 Te   8 j -0.0859212500  0.2659987500  0.4327225000  1.0000000000 Dx,Dy,Dz 
Te6 Te   8 j  0.1149062500  0.2461387500  0.0703625000  1.0000000000 Dx,Dy,Dz 
Te7 Te   4 i  0.2404625000  0.0000000000  0.7444550000  1.0000000000 Dx,0,Dz  
Te8 Te   4 i  0.2647800000  0.0000000000  0.2567000000  1.0000000000 Dx,0,Dz  
Te9 Te   8 j  0.5124837500  0.2441237500  0.2568325000  1.0000000000 Dx,Dy,Dz
