# CIF file created by FINDSYM, version 7.1.3

data_findsym-output
_audit_creation_method FINDSYM

_cell_length_a     8.7731609684
_cell_length_b     8.7731652838
_cell_length_c     20.7828006246
_cell_angle_alpha  89.9999997110
_cell_angle_beta   102.1849109150
_cell_angle_gamma  119.9999489145
_cell_volume       1343.5381716515

_symmetry_space_group_name_H-M "P 1"
_symmetry_Int_Tables_number 1
_space_group.reference_setting '001:P 1'
_space_group.transform_Pp_abc a,b,c;0,0,0

loop_
_space_group_symop_id
_space_group_symop_operation_xyz
1 x,y,z

loop_
_atom_type_symbol
Bi    
Te    

loop_
_atom_site_label
_atom_site_type_symbol
_atom_site_symmetry_multiplicity
_atom_site_Wyckoff_symbol
_atom_site_fract_x
_atom_site_fract_y
_atom_site_fract_z
_atom_site_occupancy
_atom_site_fract_symmform
Bi1  Bi   1 a  0.5944500000  0.3075900000 -0.0954000000  1.0000000000 Dx,Dy,Dz 
Bi2  Bi   1 a  0.3794100000  0.6842800000  0.5850500000  1.0000000000 Dx,Dy,Dz 
Bi3  Bi   1 a  0.8943100000  0.6955200000  0.6055100000  1.0000000000 Dx,Dy,Dz 
Bi4  Bi   1 a  0.1029400000  0.3037400000  0.4075100000  1.0000000000 Dx,Dy,Dz 
Bi5  Bi   1 a  0.8611900000  0.6665700000  0.0828700000  1.0000000000 Dx,Dy,Dz 
Bi6  Bi   1 a  0.0778300000  0.2815600000  0.8922400000  1.0000000000 Dx,Dy,Dz 
Bi7  Bi   1 a  0.8892800000  0.1903300000  0.5998500000  1.0000000000 Dx,Dy,Dz 
Bi8  Bi   1 a  0.0809600000  0.7823300000  0.3968000000  1.0000000000 Dx,Dy,Dz 
Bi9  Bi   1 a -0.0577100000  0.2565600000  0.1143700000  1.0000000000 Dx,Dy,Dz 
Bi10 Bi   1 a  0.1065700000  0.8148400000 -0.0941800000  1.0000000000 Dx,Dy,Dz 
Bi11 Bi   1 a  0.6045500000  0.7996600000 -0.0845200000  1.0000000000 Dx,Dy,Dz 
Bi12 Bi   1 a  0.3903900000  0.1881100000  0.5999800000  1.0000000000 Dx,Dy,Dz 
Bi13 Bi   1 a  0.5884600000  0.7786500000  0.3964000000  1.0000000000 Dx,Dy,Dz 
Te1  Te   1 a  0.2110200000  0.6099400000  0.8209000000  1.0000000000 Dx,Dy,Dz 
Te2  Te   1 a  0.7822900000  0.4100100000  0.1839100000  1.0000000000 Dx,Dy,Dz 
Te3  Te   1 a  0.1983500000  0.5926500000  0.3134800000  1.0000000000 Dx,Dy,Dz 
Te4  Te   1 a  0.7819700000  0.3854100000  0.6878200000  1.0000000000 Dx,Dy,Dz 
Te5  Te   1 a  0.6946400000  0.5800600000  0.3165400000  1.0000000000 Dx,Dy,Dz 
Te6  Te   1 a  0.2809600000  0.3901700000  0.6832900000  1.0000000000 Dx,Dy,Dz 
Te7  Te   1 a  0.7090600000  0.6099600000  0.8213600000  1.0000000000 Dx,Dy,Dz 
Te8  Te   1 a  0.3552600000  0.5244400000  0.1655800000  1.0000000000 Dx,Dy,Dz 
Te9  Te   1 a  0.7070800000  0.0970300000  0.3091200000  1.0000000000 Dx,Dy,Dz 
Te10 Te   1 a  0.2848100000  0.8819100000  0.6839700000  1.0000000000 Dx,Dy,Dz 
Te11 Te   1 a  0.6911900000  0.0929700000  0.8172800000  1.0000000000 Dx,Dy,Dz 
Te12 Te   1 a  0.4289600000  0.8571600000  0.1406800000  1.0000000000 Dx,Dy,Dz 
Te13 Te   1 a  0.2034600000  0.1009900000  0.8118600000  1.0000000000 Dx,Dy,Dz 
Te14 Te   1 a  0.8503400000 -0.0211600000  0.2268200000  1.0000000000 Dx,Dy,Dz 
Te15 Te   1 a  0.1980200000  0.1022200000  0.3118500000  1.0000000000 Dx,Dy,Dz 
Te16 Te   1 a  0.7710200000  0.8832300000  0.6843800000  1.0000000000 Dx,Dy,Dz 
Te17 Te   1 a  0.0041500000  0.0125100000  0.0046200000  1.0000000000 Dx,Dy,Dz 
Te18 Te   1 a -0.0089200000 -0.0101300000  0.5005400000  1.0000000000 Dx,Dy,Dz 
Te19 Te   1 a  0.4912000000 -0.0039700000  0.4969200000  1.0000000000 Dx,Dy,Dz 
Te20 Te   1 a  0.5024600000 -0.0053400000  0.0142400000  1.0000000000 Dx,Dy,Dz 
Te21 Te   1 a  0.4942600000  0.4862600000  0.4966700000  1.0000000000 Dx,Dy,Dz 
Te22 Te   1 a  0.4854500000  0.4890600000  0.0039300000  1.0000000000 Dx,Dy,Dz 
Te23 Te   1 a -0.0078300000  0.4998500000  0.0018500000  1.0000000000 Dx,Dy,Dz 
Te24 Te   1 a -0.0218600000  0.4850300000  0.4958200000  1.0000000000 Dx,Dy,Dz
