# CIF file created by FINDSYM, version 7.1.3

data_findsym-output
_audit_creation_method FINDSYM

_cell_length_a     8.7731609684
_cell_length_b     8.7731652838
_cell_length_c     20.7828006246
_cell_angle_alpha  89.9999997110
_cell_angle_beta   102.1849109150
_cell_angle_gamma  119.9999489145
_cell_volume       1343.5381716515

_symmetry_space_group_name_H-M "P 1"
_symmetry_Int_Tables_number 1
_space_group.reference_setting '001:P 1'
_space_group.transform_Pp_abc a,b,c;0,0,0

loop_
_space_group_symop_id
_space_group_symop_operation_xyz
1 x,y,z

loop_
_atom_type_symbol
Bi    
Te    

loop_
_atom_site_label
_atom_site_type_symbol
_atom_site_symmetry_multiplicity
_atom_site_Wyckoff_symbol
_atom_site_fract_x
_atom_site_fract_y
_atom_site_fract_z
_atom_site_occupancy
_atom_site_fract_symmform
Bi1  Bi   1 a  0.6017200000  0.3008500000  0.3980900000  1.0000000000 Dx,Dy,Dz 
Bi2  Bi   1 a -0.0829900000  0.7174000000  0.6165100000  1.0000000000 Dx,Dy,Dz 
Bi3  Bi   1 a  0.1024700000  0.3129900000  0.4126600000  1.0000000000 Dx,Dy,Dz 
Bi4  Bi   1 a  0.8832100000  0.6886600000  0.0962700000  1.0000000000 Dx,Dy,Dz 
Bi5  Bi   1 a  0.0817100000  0.2994700000 -0.0974200000  1.0000000000 Dx,Dy,Dz 
Bi6  Bi   1 a -0.0829900000  0.1996600000  0.6165000000  1.0000000000 Dx,Dy,Dz 
Bi7  Bi   1 a  0.1024500000  0.7895200000  0.4126500000  1.0000000000 Dx,Dy,Dz 
Bi8  Bi   1 a  0.8832600000  0.1945200000  0.0963100000  1.0000000000 Dx,Dy,Dz 
Bi9  Bi   1 a  0.0817300000  0.7822700000 -0.0974200000  1.0000000000 Dx,Dy,Dz 
Bi10 Bi   1 a  0.3891900000  0.1945700000  0.0929600000  1.0000000000 Dx,Dy,Dz 
Bi11 Bi   1 a  0.5903100000  0.7951500000  0.8915200000  1.0000000000 Dx,Dy,Dz 
Bi12 Bi   1 a  0.4001700000  0.2001100000  0.6042000000  1.0000000000 Dx,Dy,Dz 
Bi13 Bi   1 a  0.6018400000  0.8009300000  0.4017500000  1.0000000000 Dx,Dy,Dz 
Te1  Te   1 a  0.1983800000  0.5992000000  0.8120300000  1.0000000000 Dx,Dy,Dz 
Te2  Te   1 a  0.7749600000  0.3874800000  0.1830000000  1.0000000000 Dx,Dy,Dz 
Te3  Te   1 a  0.2065300000  0.6033100000  0.3202800000  1.0000000000 Dx,Dy,Dz 
Te4  Te   1 a  0.7911900000  0.3956200000  0.6933500000  1.0000000000 Dx,Dy,Dz 
Te5  Te   1 a  0.7257300000  0.6198000000  0.3156500000  1.0000000000 Dx,Dy,Dz 
Te6  Te   1 a  0.3030400000  0.4167100000  0.6838200000  1.0000000000 Dx,Dy,Dz 
Te7  Te   1 a  0.6923600000  0.5789200000  0.8209900000  1.0000000000 Dx,Dy,Dz 
Te8  Te   1 a  0.2718900000  0.3764900000  0.1881100000  1.0000000000 Dx,Dy,Dz 
Te9  Te   1 a  0.7257600000  0.1059600000  0.3156500000  1.0000000000 Dx,Dy,Dz 
Te10 Te   1 a  0.3030400000  0.8863900000  0.6838300000  1.0000000000 Dx,Dy,Dz 
Te11 Te   1 a  0.6923200000  0.1134400000  0.8209900000  1.0000000000 Dx,Dy,Dz 
Te12 Te   1 a  0.2719300000  0.8951800000  0.1880100000  1.0000000000 Dx,Dy,Dz 
Te13 Te   1 a  0.1723900000  0.0862200000  0.8054900000  1.0000000000 Dx,Dy,Dz 
Te14 Te   1 a  0.7309200000  0.8654400000  0.1622700000  1.0000000000 Dx,Dy,Dz 
Te15 Te   1 a  0.2180600000  0.1088300000  0.2714300000  1.0000000000 Dx,Dy,Dz 
Te16 Te   1 a  0.8362400000 -0.0818500000  0.7163700000  1.0000000000 Dx,Dy,Dz 
Te17 Te   1 a -0.0124100000 -0.0062000000 -0.0027800000  1.0000000000 Dx,Dy,Dz 
Te18 Te   1 a -0.0000400000  0.0000200000  0.5061400000  1.0000000000 Dx,Dy,Dz 
Te19 Te   1 a  0.5097900000  0.0105200000  0.4996000000  1.0000000000 Dx,Dy,Dz 
Te20 Te   1 a  0.5155400000  0.0975600000 -0.0233200000  1.0000000000 Dx,Dy,Dz 
Te21 Te   1 a  0.5098100000  0.4993100000  0.4995900000  1.0000000000 Dx,Dy,Dz 
Te22 Te   1 a  0.5154900000  0.4180100000 -0.0233300000  1.0000000000 Dx,Dy,Dz 
Te23 Te   1 a  0.1133000000  0.5566800000  0.0203300000  1.0000000000 Dx,Dy,Dz 
Te24 Te   1 a -0.0183600000  0.4908400000  0.4978300000  1.0000000000 Dx,Dy,Dz
