# CIF file created by FINDSYM, version 7.1.3

data_findsym-output
_audit_creation_method FINDSYM

_cell_length_a     15.1955683624
_cell_length_b     8.7731652838
_cell_length_c     20.7828006246
_cell_angle_alpha  90.0000000000
_cell_angle_beta   104.1061723083
_cell_angle_gamma  90.0000000000
_cell_volume       2687.0763433050

_symmetry_space_group_name_H-M "C 1 2/m 1"
_symmetry_Int_Tables_number 12
_space_group.reference_setting '012:-C 2y'
_space_group.transform_Pp_abc a,b,c;0,0,0

loop_
_space_group_symop_id
_space_group_symop_operation_xyz
1 x,y,z
2 -x,y,-z
3 -x,-y,-z
4 x,-y,z
5 x+1/2,y+1/2,z
6 -x+1/2,y+1/2,-z
7 -x+1/2,-y+1/2,-z
8 x+1/2,-y+1/2,z

loop_
_atom_type_symbol
Bi    
Te    

loop_
_atom_site_label
_atom_site_type_symbol
_atom_site_symmetry_multiplicity
_atom_site_Wyckoff_symbol
_atom_site_fract_x
_atom_site_fract_y
_atom_site_fract_z
_atom_site_occupancy
_atom_site_fract_symmform
Bi1  Bi   4 i  0.2980925000  0.0000000000  0.6491750000  1.0000000000 Dx,0,Dz  
Bi2  Bi   4 i  0.6995450000  0.0000000000  0.8472200000  1.0000000000 Dx,0,Dz  
Bi3  Bi   8 j  0.5501825000  0.2515075000  0.1485850000  1.0000000000 Dx,Dy,Dz 
Bi4  Bi   8 j -0.0486650000  0.2511650000  0.3495000000  1.0000000000 Dx,Dy,Dz 
Bi5  Bi   4 i  0.8012700000  0.0000000000  0.6550500000  1.0000000000 Dx,0,Dz  
Te1  Te   4 i  0.2027300000  0.0000000000  0.8551400000  1.0000000000 Dx,0,Dz  
Te2  Te   4 i  0.4116675000  0.0000000000 -0.0484650000  1.0000000000 Dx,0,Dz  
Te3  Te   4 i  0.6018800000  0.0000000000  0.5652500000  1.0000000000 Dx,0,Dz  
Te4  Te   8 j  0.6478950000  0.2517950000  0.4343900000  1.0000000000 Dx,Dy,Dz 
Te5  Te   8 j  0.8530437500  0.2413462500  0.0659425000  1.0000000000 Dx,Dy,Dz 
Te6  Te   4 i  0.8942000000  0.0000000000 -0.0640300000  1.0000000000 Dx,0,Dz  
Te7  Te   4 i  0.1020700000  0.0000000000  0.5643500000  1.0000000000 Dx,0,Dz  
Te8  Te   4 i -0.0075325000  0.0000000000  0.7508350000  1.0000000000 Dx,0,Dz  
Te9  Te   8 j  0.2530850000  0.2561750000  0.2467900000  1.0000000000 Dx,Dy,Dz 
Te10 Te   4 i  0.4977400000  0.0000000000  0.7509800000  1.0000000000 Dx,0,Dz
