# CIF file created by FINDSYM, version 7.1.3

data_findsym-output
_audit_creation_method FINDSYM

_cell_length_a     8.7731609684
_cell_length_b     8.7731652838
_cell_length_c     20.7828006246
_cell_angle_alpha  89.9999997110
_cell_angle_beta   102.1849109150
_cell_angle_gamma  119.9999489145
_cell_volume       1343.5381716515

_symmetry_space_group_name_H-M "P 1"
_symmetry_Int_Tables_number 1
_space_group.reference_setting '001:P 1'
_space_group.transform_Pp_abc a,b,c;0,0,0

loop_
_space_group_symop_id
_space_group_symop_operation_xyz
1 x,y,z

loop_
_atom_type_symbol
Bi    
Te    

loop_
_atom_site_label
_atom_site_type_symbol
_atom_site_symmetry_multiplicity
_atom_site_Wyckoff_symbol
_atom_site_fract_x
_atom_site_fract_y
_atom_site_fract_z
_atom_site_occupancy
_atom_site_fract_symmform
Bi1  Bi   1 a  0.6084700000  0.3090800000 -0.0864400000  1.0000000000 Dx,Dy,Dz 
Bi2  Bi   1 a  0.3853800000  0.6897200000  0.5867200000  1.0000000000 Dx,Dy,Dz 
Bi3  Bi   1 a  0.8812800000  0.7013400000  0.6008900000  1.0000000000 Dx,Dy,Dz 
Bi4  Bi   1 a  0.8877000000  0.6879400000  0.0924100000  1.0000000000 Dx,Dy,Dz 
Bi5  Bi   1 a  0.0931200000  0.2941400000  0.8945500000  1.0000000000 Dx,Dy,Dz 
Bi6  Bi   1 a  0.8789500000  0.1862800000  0.5947800000  1.0000000000 Dx,Dy,Dz 
Bi7  Bi   1 a  0.0602800000  0.7800200000  0.3840000000  1.0000000000 Dx,Dy,Dz 
Bi8  Bi   1 a -0.0932700000  0.2111000000  0.1011200000  1.0000000000 Dx,Dy,Dz 
Bi9  Bi   1 a  0.0998400000  0.8045300000  0.8993700000  1.0000000000 Dx,Dy,Dz 
Bi10 Bi   1 a  0.3973500000  0.2126800000  0.1017800000  1.0000000000 Dx,Dy,Dz 
Bi11 Bi   1 a  0.5991100000  0.8043700000  0.8998200000  1.0000000000 Dx,Dy,Dz 
Bi12 Bi   1 a  0.3864300000  0.1789200000  0.6004000000  1.0000000000 Dx,Dy,Dz 
Bi13 Bi   1 a  0.5814800000  0.7587900000  0.4058800000  1.0000000000 Dx,Dy,Dz 
Te1  Te   1 a  0.2098000000  0.6074300000  0.8132000000  1.0000000000 Dx,Dy,Dz 
Te2  Te   1 a  0.7870000000  0.3984300000  0.1851500000  1.0000000000 Dx,Dy,Dz 
Te3  Te   1 a  0.1849200000  0.5673800000  0.3158100000  1.0000000000 Dx,Dy,Dz 
Te4  Te   1 a  0.7844200000  0.3909600000  0.6831400000  1.0000000000 Dx,Dy,Dz 
Te5  Te   1 a  0.6763900000  0.5756200000  0.3130600000  1.0000000000 Dx,Dy,Dz 
Te6  Te   1 a  0.2786300000  0.3874100000  0.6792600000  1.0000000000 Dx,Dy,Dz 
Te7  Te   1 a  0.7056600000  0.6018600000  0.8156400000  1.0000000000 Dx,Dy,Dz 
Te8  Te   1 a  0.2993400000  0.4258700000  0.1775900000  1.0000000000 Dx,Dy,Dz 
Te9  Te   1 a  0.0518200000  0.3043500000  0.4041900000  1.0000000000 Dx,Dy,Dz 
Te10 Te   1 a  0.2861000000  0.8823300000  0.6830800000  1.0000000000 Dx,Dy,Dz 
Te11 Te   1 a  0.7053800000  0.1098800000  0.8151200000  1.0000000000 Dx,Dy,Dz 
Te12 Te   1 a  0.2825900000 -0.0955000000  0.1959000000  1.0000000000 Dx,Dy,Dz 
Te13 Te   1 a  0.2166600000  0.1098800000  0.8149800000  1.0000000000 Dx,Dy,Dz 
Te14 Te   1 a  0.7858200000  0.8936700000  0.1878200000  1.0000000000 Dx,Dy,Dz 
Te15 Te   1 a  0.1339700000  0.0399100000  0.2683500000  1.0000000000 Dx,Dy,Dz 
Te16 Te   1 a  0.7755800000  0.8934300000  0.6848900000  1.0000000000 Dx,Dy,Dz 
Te17 Te   1 a -0.0001200000  0.0036600000 -0.0001700000  1.0000000000 Dx,Dy,Dz 
Te18 Te   1 a -0.0074200000 -0.0072900000  0.4945100000  1.0000000000 Dx,Dy,Dz 
Te19 Te   1 a  0.4866900000 -0.0066600000  0.4949500000  1.0000000000 Dx,Dy,Dz 
Te20 Te   1 a  0.4972800000 -0.0033000000  0.0018700000  1.0000000000 Dx,Dy,Dz 
Te21 Te   1 a  0.5025000000  0.4903300000  0.4975100000  1.0000000000 Dx,Dy,Dz 
Te22 Te   1 a  0.4997800000  0.5085900000  0.0040400000  1.0000000000 Dx,Dy,Dz 
Te23 Te   1 a  0.0100200000  0.5095600000  0.0035400000  1.0000000000 Dx,Dy,Dz 
Te24 Te   1 a -0.0189300000  0.4933200000  0.4913100000  1.0000000000 Dx,Dy,Dz
