# CIF file created by FINDSYM, version 7.1.3

data_findsym-output
_audit_creation_method FINDSYM

_cell_length_a     15.1955683624
_cell_length_b     8.7731652838
_cell_length_c     10.3914003123
_cell_angle_alpha  90.0000000000
_cell_angle_beta   104.1061723083
_cell_angle_gamma  90.0000000000
_cell_volume       1343.5381716525

_symmetry_space_group_name_H-M "C 1 m 1"
_symmetry_Int_Tables_number 8
_space_group.reference_setting '008:C -2y'
_space_group.transform_Pp_abc a,b,c;0,0,0

loop_
_space_group_symop_id
_space_group_symop_operation_xyz
1 x,y,z
2 x,-y,z
3 x+1/2,y+1/2,z
4 x+1/2,-y+1/2,z

loop_
_atom_type_symbol
Bi    
Te    

loop_
_atom_site_label
_atom_site_type_symbol
_atom_site_symmetry_multiplicity
_atom_site_Wyckoff_symbol
_atom_site_fract_x
_atom_site_fract_y
_atom_site_fract_z
_atom_site_occupancy
_atom_site_fract_symmform
Bi1 Bi   2 a  0.3036800000  0.0000000000  0.7999600000  1.0000000000 Dx,0,Dz  
Bi2 Bi   2 a  0.7072700000  0.0000000000  0.2052200000  1.0000000000 Dx,0,Dz  
Bi3 Bi   4 b  0.5500550000  0.2569250000  0.8039800000  1.0000000000 Dx,Dy,Dz 
Bi4 Bi   4 b -0.0534350000  0.2855150000  0.2093800000  1.0000000000 Dx,Dy,Dz 
Bi5 Bi   2 a  0.7944250000  0.0000000000  0.7895600000  1.0000000000 Dx,0,Dz  
Bi6 Bi   2 a  0.1881400000  0.0000000000  0.1843600000  1.0000000000 Dx,0,Dz  
Te1 Te   2 a  0.6015300000  0.0000000000  0.6296200000  1.0000000000 Dx,0,Dz  
Te2 Te   4 b  0.6434400000  0.2495400000  0.3667600000  1.0000000000 Dx,Dy,Dz 
Te3 Te   4 b  0.8573250000  0.2518050000  0.6258400000  1.0000000000 Dx,Dy,Dz 
Te4 Te   2 a -0.0994750000  0.0000000000  0.3675200000  1.0000000000 Dx,0,Dz  
Te5 Te   2 a  0.1069900000  0.0000000000  0.6303200000  1.0000000000 Dx,0,Dz  
Te6 Te   2 a -0.0012800000  0.0000000000  0.0104600000  1.0000000000 Dx,0,Dz  
Te7 Te   4 b  0.2530050000  0.2512150000 -0.0016400000  1.0000000000 Dx,Dy,Dz 
Te8 Te   2 a  0.5026800000  0.0000000000  0.0027800000  1.0000000000 Dx,0,Dz
