# CIF file created by FINDSYM, version 7.1.3

data_findsym-output
_audit_creation_method FINDSYM

_cell_length_a     8.7731609684
_cell_length_b     8.7731652838
_cell_length_c     20.7828006246
_cell_angle_alpha  89.9999997110
_cell_angle_beta   102.1849109150
_cell_angle_gamma  119.9999489145
_cell_volume       1343.5381716515

_symmetry_space_group_name_H-M "P 1"
_symmetry_Int_Tables_number 1
_space_group.reference_setting '001:P 1'
_space_group.transform_Pp_abc a,b,c;0,0,0

loop_
_space_group_symop_id
_space_group_symop_operation_xyz
1 x,y,z

loop_
_atom_type_symbol
Bi    
Te    

loop_
_atom_site_label
_atom_site_type_symbol
_atom_site_symmetry_multiplicity
_atom_site_Wyckoff_symbol
_atom_site_fract_x
_atom_site_fract_y
_atom_site_fract_z
_atom_site_occupancy
_atom_site_fract_symmform
Bi1  Bi   1 a  0.4159500000  0.7127100000  0.1035900000  1.0000000000 Dx,Dy,Dz 
Bi2  Bi   1 a  0.5944900000  0.3024000000 -0.0978400000  1.0000000000 Dx,Dy,Dz 
Bi3  Bi   1 a  0.3968700000  0.6558700000  0.6007200000  1.0000000000 Dx,Dy,Dz 
Bi4  Bi   1 a  0.5860800000  0.2822200000  0.3983100000  1.0000000000 Dx,Dy,Dz 
Bi5  Bi   1 a -0.0553000000  0.7104300000  0.6175400000  1.0000000000 Dx,Dy,Dz 
Bi6  Bi   1 a  0.0903000000  0.2968000000  0.4008600000  1.0000000000 Dx,Dy,Dz 
Bi7  Bi   1 a  0.8676700000  0.7278400000  0.1067500000  1.0000000000 Dx,Dy,Dz 
Bi8  Bi   1 a  0.1028100000  0.3341300000 -0.0939100000  1.0000000000 Dx,Dy,Dz 
Bi9  Bi   1 a  0.8811400000  0.1679700000  0.5871800000  1.0000000000 Dx,Dy,Dz 
Bi10 Bi   1 a  0.0816000000  0.7821600000  0.3933400000  1.0000000000 Dx,Dy,Dz 
Bi11 Bi   1 a  0.8829900000  0.2168700000  0.0994000000  1.0000000000 Dx,Dy,Dz 
Bi12 Bi   1 a  0.0801500000  0.8148100000 -0.0927900000  1.0000000000 Dx,Dy,Dz 
Bi13 Bi   1 a  0.3744100000  0.1932400000  0.1008300000  1.0000000000 Dx,Dy,Dz 
Bi14 Bi   1 a  0.5465500000  0.7760500000  0.8979700000  1.0000000000 Dx,Dy,Dz 
Bi15 Bi   1 a  0.3036700000  0.0571400000  0.6208800000  1.0000000000 Dx,Dy,Dz 
Bi16 Bi   1 a  0.5724300000  0.7815500000  0.4031200000  1.0000000000 Dx,Dy,Dz 
Te1  Te   1 a  0.7691500000  0.4035200000  0.1840800000  1.0000000000 Dx,Dy,Dz 
Te2  Te   1 a  0.1898600000  0.5981900000  0.3084000000  1.0000000000 Dx,Dy,Dz 
Te3  Te   1 a  0.6869900000  0.5947700000  0.3150800000  1.0000000000 Dx,Dy,Dz 
Te4  Te   1 a  0.2631200000  0.3454400000  0.6835500000  1.0000000000 Dx,Dy,Dz 
Te5  Te   1 a  0.6907900000  0.6064500000  0.8181100000  1.0000000000 Dx,Dy,Dz 
Te6  Te   1 a  0.2760700000  0.4002400000  0.1846300000  1.0000000000 Dx,Dy,Dz 
Te7  Te   1 a  0.6952700000  0.0941900000  0.3144700000  1.0000000000 Dx,Dy,Dz 
Te8  Te   1 a  0.2888600000  0.8058900000  0.7194200000  1.0000000000 Dx,Dy,Dz 
Te9  Te   1 a  0.7108200000  0.1109700000  0.8221800000  1.0000000000 Dx,Dy,Dz 
Te10 Te   1 a  0.2712500000  0.8931100000  0.1842900000  1.0000000000 Dx,Dy,Dz 
Te11 Te   1 a  0.1972900000  0.1121500000  0.8225700000  1.0000000000 Dx,Dy,Dz 
Te12 Te   1 a  0.1925700000  0.0993000000  0.3133700000  1.0000000000 Dx,Dy,Dz 
Te13 Te   1 a  0.7856200000  0.8869000000  0.6850600000  1.0000000000 Dx,Dy,Dz 
Te14 Te   1 a -0.0269800000 -0.0007300000 -0.0035600000  1.0000000000 Dx,Dy,Dz 
Te15 Te   1 a -0.0256600000 -0.0003700000  0.4919300000  1.0000000000 Dx,Dy,Dz 
Te16 Te   1 a  0.4705300000 -0.0200300000  0.5035500000  1.0000000000 Dx,Dy,Dz 
Te17 Te   1 a  0.4841000000 -0.0014300000  0.0011400000  1.0000000000 Dx,Dy,Dz 
Te18 Te   1 a  0.4936700000  0.4875000000  0.5013100000  1.0000000000 Dx,Dy,Dz 
Te19 Te   1 a  0.4937800000  0.5081300000  0.0023900000  1.0000000000 Dx,Dy,Dz 
Te20 Te   1 a -0.0050300000  0.5094800000  0.0103600000  1.0000000000 Dx,Dy,Dz 
Te21 Te   1 a -0.0107800000  0.4987800000  0.5011000000  1.0000000000 Dx,Dy,Dz
