# CIF file created by FINDSYM, version 7.1.3

data_findsym-output
_audit_creation_method FINDSYM

_cell_length_a     15.1955758369
_cell_length_b     8.7731609684
_cell_length_c     20.7828083038
_cell_angle_alpha  90.0000000000
_cell_angle_beta   104.1062565540
_cell_angle_gamma  90.0000000000
_cell_volume       2687.0763433039

_symmetry_space_group_name_H-M "C 1 2/m 1"
_symmetry_Int_Tables_number 12
_space_group.reference_setting '012:-C 2y'
_space_group.transform_Pp_abc a,b,c;0,0,0

loop_
_space_group_symop_id
_space_group_symop_operation_xyz
1 x,y,z
2 -x,y,-z
3 -x,-y,-z
4 x,-y,z
5 x+1/2,y+1/2,z
6 -x+1/2,y+1/2,-z
7 -x+1/2,-y+1/2,-z
8 x+1/2,-y+1/2,z

loop_
_atom_type_symbol
Bi    
Te    

loop_
_atom_site_label
_atom_site_type_symbol
_atom_site_symmetry_multiplicity
_atom_site_Wyckoff_symbol
_atom_site_fract_x
_atom_site_fract_y
_atom_site_fract_z
_atom_site_occupancy
_atom_site_fract_symmform
Bi1 Bi   8 j  0.2005450000  0.2472950000  0.1020000000  1.0000000000 Dx,Dy,Dz 
Bi2 Bi   4 i  0.4492300000  0.0000000000  0.5991800000  1.0000000000 Dx,0,Dz  
Bi3 Bi   4 i  0.0492700000  0.0000000000  0.3982100000  1.0000000000 Dx,0,Dz  
Bi4 Bi   8 j  0.2001400000  0.2494000000  0.6007100000  1.0000000000 Dx,Dy,Dz 
Bi5 Bi   4 i  0.4489150000  0.0000000000  0.0971800000  1.0000000000 Dx,0,Dz  
Bi6 Bi   4 i  0.0463800000  0.0000000000  0.8956600000  1.0000000000 Dx,0,Dz  
Bi7 Bi   4 i  0.1495500000  0.0000000000  0.1953700000  1.0000000000 Dx,0,Dz  
Te1 Te   8 j  0.1044500000  0.2499600000  0.8141600000  1.0000000000 Dx,Dy,Dz 
Te2 Te   4 i  0.3540600000  0.0000000000  0.3130500000  1.0000000000 Dx,0,Dz  
Te3 Te   4 i  0.1459800000  0.0000000000  0.6870500000  1.0000000000 Dx,0,Dz  
Te4 Te   8 j  0.1048850000  0.2490050000  0.3125700000  1.0000000000 Dx,Dy,Dz 
Te5 Te   4 i  0.3545400000  0.0000000000  0.8144900000  1.0000000000 Dx,0,Dz  
Te6 Te   4 g  0.0000000000  0.7505100000  0.0000000000  1.0000000000 0,Dy,0   
Te7 Te   4 i  0.7497500000  0.0000000000  0.4997500000  1.0000000000 Dx,0,Dz  
Te8 Te   4 h  0.0000000000  0.7491100000  0.5000000000  1.0000000000 0,Dy,0   
Te9 Te   4 i  0.7493700000  0.0000000000 -0.0031400000  1.0000000000 Dx,0,Dz
