# CIF file created by FINDSYM, version 7.1.3

data_findsym-output
_audit_creation_method FINDSYM

_cell_length_a     15.1955683624
_cell_length_b     8.7731652838
_cell_length_c     20.7828006246
_cell_angle_alpha  90.0000000000
_cell_angle_beta   104.1061723083
_cell_angle_gamma  90.0000000000
_cell_volume       2687.0763433050

_symmetry_space_group_name_H-M "C 1 m 1"
_symmetry_Int_Tables_number 8
_space_group.reference_setting '008:C -2y'
_space_group.transform_Pp_abc a,b,c;0,0,0

loop_
_space_group_symop_id
_space_group_symop_operation_xyz
1 x,y,z
2 x,-y,z
3 x+1/2,y+1/2,z
4 x+1/2,-y+1/2,z

loop_
_atom_type_symbol
Bi    
Te    

loop_
_atom_site_label
_atom_site_type_symbol
_atom_site_symmetry_multiplicity
_atom_site_Wyckoff_symbol
_atom_site_fract_x
_atom_site_fract_y
_atom_site_fract_z
_atom_site_occupancy
_atom_site_fract_symmform
Bi1  Bi   2 a  0.2966900000  0.0000000000  0.3954600000  1.0000000000 Dx,0,Dz  
Bi2  Bi   2 a  0.7033100000  0.0000000000  0.6045400000  1.0000000000 Dx,0,Dz  
Bi3  Bi   4 b  0.5493850000  0.2526950000  0.3954600000  1.0000000000 Dx,Dy,Dz 
Bi4  Bi   4 b -0.0493850000  0.2473050000  0.6045400000  1.0000000000 Dx,Dy,Dz 
Bi5  Bi   4 b  0.5499875000  0.2499775000  0.8999650000  1.0000000000 Dx,Dy,Dz 
Bi6  Bi   4 b -0.0500000000  0.2500150000  0.1000400000  1.0000000000 Dx,Dy,Dz 
Bi7  Bi   2 a  0.7999750000  0.0000000000  0.8999700000  1.0000000000 Dx,0,Dz  
Bi8  Bi   2 a  0.2000250000  0.0000000000  0.1000400000  1.0000000000 Dx,0,Dz  
Bi9  Bi   2 a  0.7997600000  0.0000000000  0.3992700000  1.0000000000 Dx,0,Dz  
Bi10 Bi   2 a  0.2002500000  0.0000000000  0.6007400000  1.0000000000 Dx,0,Dz  
Te1  Te   2 a  0.3954300000  0.0000000000  0.1863000000  1.0000000000 Dx,0,Dz  
Te2  Te   2 a  0.6045650000  0.0000000000  0.8137000000  1.0000000000 Dx,0,Dz  
Te3  Te   2 a  0.3957350000  0.0000000000  0.6885900000  1.0000000000 Dx,0,Dz  
Te4  Te   2 a  0.6042650000  0.0000000000  0.3114100000  1.0000000000 Dx,0,Dz  
Te5  Te   4 b  0.6464300000  0.2506900000  0.6885900000  1.0000000000 Dx,Dy,Dz 
Te6  Te   4 b  0.8535750000  0.2493050000  0.3114100000  1.0000000000 Dx,Dy,Dz 
Te7  Te   4 b  0.6452150000  0.2513300000  0.1869900000  1.0000000000 Dx,Dy,Dz 
Te8  Te   4 b  0.8547725000  0.2486925000  0.8130250000  1.0000000000 Dx,Dy,Dz 
Te9  Te   2 a  0.8965250000  0.0000000000  0.1869800000  1.0000000000 Dx,0,Dz  
Te10 Te   2 a  0.1034350000  0.0000000000  0.8130100000  1.0000000000 Dx,0,Dz  
Te11 Te   2 a -0.0994150000  0.0000000000  0.7017300000  1.0000000000 Dx,0,Dz  
Te12 Te   2 a  0.0994300000  0.0000000000  0.2982700000  1.0000000000 Dx,0,Dz  
Te13 Te   2 a  0.0000000000  0.0000000000  0.0000000000  1.0000000000 Dx,0,Dz  
Te14 Te   2 a  0.0000000000  0.0000000000  0.5000000000  1.0000000000 Dx,0,Dz  
Te15 Te   4 b  0.2500025000  0.2499975000  0.4999950000  1.0000000000 Dx,Dy,Dz 
Te16 Te   4 b  0.2500025000  0.2499625000 -0.0000050000  1.0000000000 Dx,Dy,Dz 
Te17 Te   2 a  0.5000650000  0.0000000000  0.0000200000  1.0000000000 Dx,0,Dz  
Te18 Te   2 a  0.5000050000  0.0000000000  0.5000000000  1.0000000000 Dx,0,Dz
