# CIF file created by FINDSYM, version 7.1.3

data_findsym-output
_audit_creation_method FINDSYM

_cell_length_a     15.1955758369
_cell_length_b     8.7731609684
_cell_length_c     20.7828083038
_cell_angle_alpha  90.0000000000
_cell_angle_beta   104.1062565540
_cell_angle_gamma  90.0000000000
_cell_volume       2687.0763433039

_symmetry_space_group_name_H-M "C 1 m 1"
_symmetry_Int_Tables_number 8
_space_group.reference_setting '008:C -2y'
_space_group.transform_Pp_abc a,b,c;0,0,0

loop_
_space_group_symop_id
_space_group_symop_operation_xyz
1 x,y,z
2 x,-y,z
3 x+1/2,y+1/2,z
4 x+1/2,-y+1/2,z

loop_
_atom_type_symbol
Bi    
Te    

loop_
_atom_site_label
_atom_site_type_symbol
_atom_site_symmetry_multiplicity
_atom_site_Wyckoff_symbol
_atom_site_fract_x
_atom_site_fract_y
_atom_site_fract_z
_atom_site_occupancy
_atom_site_fract_symmform
Bi1  Bi   2 a  0.6927498649  0.0000000000  0.1021797297  1.0000000000 Dx,0,Dz  
Bi2  Bi   2 a  0.2897298649  0.0000000000  0.8999097297  1.0000000000 Dx,0,Dz  
Bi3  Bi   4 b  0.4496798649  0.2502900000  0.5970697297  1.0000000000 Dx,Dy,Dz 
Bi4  Bi   4 b  0.0433798649  0.2602400000  0.3904197297  1.0000000000 Dx,Dy,Dz 
Bi5  Bi   2 a  0.1973598649  0.0000000000  0.1050797297  1.0000000000 Dx,0,Dz  
Bi6  Bi   2 a  0.8014098649  0.0000000000 -0.0927602703  1.0000000000 Dx,0,Dz  
Bi7  Bi   2 a  0.6993748649  0.0000000000  0.5932297297  1.0000000000 Dx,0,Dz  
Bi8  Bi   2 a  0.3813998649  0.0000000000  0.3425697297  1.0000000000 Dx,0,Dz  
Bi9  Bi   4 b  0.4447498649  0.2608400000  0.1018297297  1.0000000000 Dx,Dy,Dz 
Bi10 Bi   4 b  0.0492348649  0.2855550000  0.8985297297  1.0000000000 Dx,Dy,Dz 
Bi11 Bi   2 a  0.2042698649  0.0000000000  0.6142297297  1.0000000000 Dx,0,Dz  
Bi12 Bi   2 a  0.8079798649  0.0000000000  0.4259597297  1.0000000000 Dx,0,Dz  
Te1  Te   2 a  0.3883598649  0.0000000000  0.1920997297  1.0000000000 Dx,0,Dz  
Te2  Te   4 b  0.1450348649  0.2579250000  0.6865997297  1.0000000000 Dx,Dy,Dz 
Te3  Te   2 a  0.0948398649  0.0000000000  0.8196997297  1.0000000000 Dx,0,Dz  
Te4  Te   2 a  0.8869498649  0.0000000000  0.1892697297  1.0000000000 Dx,0,Dz  
Te5  Te   2 a  0.6267098649  0.0000000000  0.3202097297  1.0000000000 Dx,0,Dz  
Te6  Te   2 a  0.4060898649  0.0000000000  0.6882497297  1.0000000000 Dx,0,Dz  
Te7  Te   4 b  0.3530448649  0.2504250000  0.8192497297  1.0000000000 Dx,Dy,Dz 
Te8  Te   4 b  0.1395548649  0.2480550000  0.1886397297  1.0000000000 Dx,Dy,Dz 
Te9  Te   2 a  0.0862198649  0.0000000000  0.3071997297  1.0000000000 Dx,0,Dz  
Te10 Te   2 a  0.8923098649  0.0000000000  0.6825097297  1.0000000000 Dx,0,Dz  
Te11 Te   2 a -0.0073001351  0.0000000000  0.0002197297  1.0000000000 Dx,0,Dz  
Te12 Te   4 b  0.7514098649  0.2541500000  0.4976197297  1.0000000000 Dx,Dy,Dz 
Te13 Te   2 a  0.4910898649  0.0000000000  0.0024997297  1.0000000000 Dx,0,Dz  
Te14 Te   2 a  0.0161798649  0.0000000000  0.5034297297  1.0000000000 Dx,0,Dz  
Te15 Te   4 b  0.7434048649  0.2501750000  0.0029597297  1.0000000000 Dx,Dy,Dz 
Te16 Te   2 a  0.4911298649  0.0000000000  0.4958597297  1.0000000000 Dx,0,Dz
