# CIF file created by FINDSYM, version 7.1.3

data_findsym-output
_audit_creation_method FINDSYM

_cell_length_a     15.1955758369
_cell_length_b     8.7731609684
_cell_length_c     20.7828083038
_cell_angle_alpha  90.0000000000
_cell_angle_beta   104.1062565540
_cell_angle_gamma  90.0000000000
_cell_volume       2687.0763433039

_symmetry_space_group_name_H-M "C 1 m 1"
_symmetry_Int_Tables_number 8
_space_group.reference_setting '008:C -2y'
_space_group.transform_Pp_abc a,b,c;0,0,0

loop_
_space_group_symop_id
_space_group_symop_operation_xyz
1 x,y,z
2 x,-y,z
3 x+1/2,y+1/2,z
4 x+1/2,-y+1/2,z

loop_
_atom_type_symbol
Bi    
Te    

loop_
_atom_site_label
_atom_site_type_symbol
_atom_site_symmetry_multiplicity
_atom_site_Wyckoff_symbol
_atom_site_fract_x
_atom_site_fract_y
_atom_site_fract_z
_atom_site_occupancy
_atom_site_fract_symmform
Bi1  Bi   2 a  0.6991700000  0.0000000000  0.1004300000  1.0000000000 Dx,0,Dz  
Bi2  Bi   2 a  0.2998200000  0.0000000000 -0.0996100000  1.0000000000 Dx,0,Dz  
Bi3  Bi   4 b  0.4512400000  0.2495100000  0.6000800000  1.0000000000 Dx,Dy,Dz 
Bi4  Bi   4 b  0.0514100000  0.2507000000  0.4001000000  1.0000000000 Dx,Dy,Dz 
Bi5  Bi   2 a  0.1999900000  0.0000000000  0.1014700000  1.0000000000 Dx,0,Dz  
Bi6  Bi   2 a  0.7999400000  0.0000000000 -0.0993600000  1.0000000000 Dx,0,Dz  
Bi7  Bi   2 a  0.7009400000  0.0000000000  0.6004400000  1.0000000000 Dx,0,Dz  
Bi8  Bi   2 a  0.2995600000  0.0000000000  0.4020200000  1.0000000000 Dx,0,Dz  
Bi9  Bi   4 b  0.4492950000  0.2500650000  0.1010800000  1.0000000000 Dx,Dy,Dz 
Bi10 Bi   4 b  0.0498600000  0.2505800000 -0.0996400000  1.0000000000 Dx,Dy,Dz 
Bi11 Bi   2 a  0.1985600000  0.0000000000  0.5954700000  1.0000000000 Dx,0,Dz  
Te1  Te   2 a  0.8022000000  0.0000000000  0.3954100000  1.0000000000 Dx,0,Dz  
Te2  Te   2 a  0.6043300000  0.0000000000  0.8143400000  1.0000000000 Dx,0,Dz  
Te3  Te   2 a  0.3950200000  0.0000000000  0.1912100000  1.0000000000 Dx,0,Dz  
Te4  Te   4 b  0.3533250000  0.2569650000  0.3152400000  1.0000000000 Dx,Dy,Dz 
Te5  Te   4 b  0.1472850000  0.2475450000  0.6843500000  1.0000000000 Dx,Dy,Dz 
Te6  Te   2 a  0.1042900000  0.0000000000  0.8147900000  1.0000000000 Dx,0,Dz  
Te7  Te   2 a  0.8951200000  0.0000000000  0.1861000000  1.0000000000 Dx,0,Dz  
Te8  Te   2 a  0.5927800000  0.0000000000  0.3099500000  1.0000000000 Dx,0,Dz  
Te9  Te   2 a  0.3978600000  0.0000000000  0.6850800000  1.0000000000 Dx,0,Dz  
Te10 Te   4 b  0.3542750000  0.2496350000  0.8145200000  1.0000000000 Dx,Dy,Dz 
Te11 Te   4 b  0.1444500000  0.2505600000  0.1864200000  1.0000000000 Dx,Dy,Dz 
Te12 Te   2 a  0.1056000000  0.0000000000  0.3144600000  1.0000000000 Dx,0,Dz  
Te13 Te   2 a  0.8962500000  0.0000000000  0.6857800000  1.0000000000 Dx,0,Dz  
Te14 Te   2 a -0.0011400000  0.0000000000  0.0017900000  1.0000000000 Dx,0,Dz  
Te15 Te   4 b  0.7522150000  0.2441250000  0.4966100000  1.0000000000 Dx,Dy,Dz 
Te16 Te   2 a  0.4994600000  0.0000000000  0.0009300000  1.0000000000 Dx,0,Dz  
Te17 Te   2 a  0.0038100000  0.0000000000  0.5003200000  1.0000000000 Dx,0,Dz  
Te18 Te   4 b  0.7493950000  0.2506050000  0.0007500000  1.0000000000 Dx,Dy,Dz 
Te19 Te   2 a  0.5009400000  0.0000000000  0.5000000000  1.0000000000 Dx,0,Dz
