# CIF file created by FINDSYM, version 7.1.3

data_findsym-output
_audit_creation_method FINDSYM

_cell_length_a     8.7731609684
_cell_length_b     8.7731652838
_cell_length_c     20.7828006246
_cell_angle_alpha  89.9999997110
_cell_angle_beta   102.1849109150
_cell_angle_gamma  119.9999489145
_cell_volume       1343.5381716515

_symmetry_space_group_name_H-M "P 1"
_symmetry_Int_Tables_number 1
_space_group.reference_setting '001:P 1'
_space_group.transform_Pp_abc a,b,c;0,0,0

loop_
_space_group_symop_id
_space_group_symop_operation_xyz
1 x,y,z

loop_
_atom_type_symbol
Bi    
Te    

loop_
_atom_site_label
_atom_site_type_symbol
_atom_site_symmetry_multiplicity
_atom_site_Wyckoff_symbol
_atom_site_fract_x
_atom_site_fract_y
_atom_site_fract_z
_atom_site_occupancy
_atom_site_fract_symmform
Bi1  Bi   1 a  0.3793000000  0.6918600000  0.6058200000  1.0000000000 Dx,Dy,Dz 
Bi2  Bi   1 a  0.5724400000  0.2884600000  0.4011600000  1.0000000000 Dx,Dy,Dz 
Bi3  Bi   1 a  0.8723300000  0.6910400000  0.6061000000  1.0000000000 Dx,Dy,Dz 
Bi4  Bi   1 a  0.0708900000  0.2873800000  0.4015600000  1.0000000000 Dx,Dy,Dz 
Bi5  Bi   1 a  0.0720500000  0.2751200000  0.8957500000  1.0000000000 Dx,Dy,Dz 
Bi6  Bi   1 a  0.8723100000  0.1848500000  0.6064800000  1.0000000000 Dx,Dy,Dz 
Bi7  Bi   1 a  0.0712100000  0.7866800000  0.4024600000  1.0000000000 Dx,Dy,Dz 
Bi8  Bi   1 a -0.0930000000  0.2984800000  0.0745800000  1.0000000000 Dx,Dy,Dz 
Bi9  Bi   1 a  0.0761200000  0.8055300000  0.8975200000  1.0000000000 Dx,Dy,Dz 
Bi10 Bi   1 a  0.3629200000  0.1743800000  0.0955900000  1.0000000000 Dx,Dy,Dz 
Bi11 Bi   1 a  0.5796300000  0.7895300000  0.8961000000  1.0000000000 Dx,Dy,Dz 
Bi12 Bi   1 a  0.3715300000  0.1877500000  0.6021200000  1.0000000000 Dx,Dy,Dz 
Bi13 Bi   1 a  0.5700400000  0.7867500000  0.4004800000  1.0000000000 Dx,Dy,Dz 
Te1  Te   1 a  0.1830400000  0.5948800000  0.8160300000  1.0000000000 Dx,Dy,Dz 
Te2  Te   1 a  0.7663600000  0.3809300000  0.1818900000  1.0000000000 Dx,Dy,Dz 
Te3  Te   1 a  0.1805100000  0.5924000000  0.3158800000  1.0000000000 Dx,Dy,Dz 
Te4  Te   1 a  0.7614100000  0.3830000000  0.6898100000  1.0000000000 Dx,Dy,Dz 
Te5  Te   1 a  0.6803900000  0.5920300000  0.3147800000  1.0000000000 Dx,Dy,Dz 
Te6  Te   1 a  0.2654400000  0.3838600000  0.6899200000  1.0000000000 Dx,Dy,Dz 
Te7  Te   1 a  0.6920600000  0.5894300000  0.8194800000  1.0000000000 Dx,Dy,Dz 
Te8  Te   1 a  0.2408400000  0.3757900000  0.1769600000  1.0000000000 Dx,Dy,Dz 
Te9  Te   1 a  0.6796700000  0.0929300000  0.3136400000  1.0000000000 Dx,Dy,Dz 
Te10 Te   1 a  0.2652300000  0.8861400000  0.6898900000  1.0000000000 Dx,Dy,Dz 
Te11 Te   1 a  0.6854300000  0.1011200000  0.8191000000  1.0000000000 Dx,Dy,Dz 
Te12 Te   1 a  0.2471300000  0.8537500000  0.1764900000  1.0000000000 Dx,Dy,Dz 
Te13 Te   1 a  0.2076300000  0.1058800000  0.8203300000  1.0000000000 Dx,Dy,Dz 
Te14 Te   1 a  0.8684700000  0.6624400000  0.0948100000  1.0000000000 Dx,Dy,Dz 
Te15 Te   1 a  0.1806200000  0.0916700000  0.3157900000  1.0000000000 Dx,Dy,Dz 
Te16 Te   1 a  0.7662200000  0.8849100000  0.6958400000  1.0000000000 Dx,Dy,Dz 
Te17 Te   1 a -0.0344200000 -0.0118300000  0.0056300000  1.0000000000 Dx,Dy,Dz 
Te18 Te   1 a -0.0293700000 -0.0121600000  0.5028100000  1.0000000000 Dx,Dy,Dz 
Te19 Te   1 a  0.4729900000 -0.0115400000  0.5022700000  1.0000000000 Dx,Dy,Dz 
Te20 Te   1 a  0.4938300000 -0.0149900000  0.0098700000  1.0000000000 Dx,Dy,Dz 
Te21 Te   1 a  0.4729400000  0.4891500000  0.5017700000  1.0000000000 Dx,Dy,Dz 
Te22 Te   1 a  0.4780400000  0.4884100000  0.0043200000  1.0000000000 Dx,Dy,Dz 
Te23 Te   1 a  0.3666200000  0.6716100000  0.0890600000  1.0000000000 Dx,Dy,Dz 
Te24 Te   1 a -0.0280100000  0.4879200000  0.5038300000  1.0000000000 Dx,Dy,Dz
