# CIF file created by FINDSYM, version 7.1.3

data_findsym-output
_audit_creation_method FINDSYM

_cell_length_a     8.7731609684
_cell_length_b     8.7731652838
_cell_length_c     20.7828006246
_cell_angle_alpha  89.9999997110
_cell_angle_beta   102.1849109150
_cell_angle_gamma  119.9999489145
_cell_volume       1343.5381716515

_symmetry_space_group_name_H-M "P 1"
_symmetry_Int_Tables_number 1
_space_group.reference_setting '001:P 1'
_space_group.transform_Pp_abc a,b,c;0,0,0

loop_
_space_group_symop_id
_space_group_symop_operation_xyz
1 x,y,z

loop_
_atom_type_symbol
Bi    
Te    

loop_
_atom_site_label
_atom_site_type_symbol
_atom_site_symmetry_multiplicity
_atom_site_Wyckoff_symbol
_atom_site_fract_x
_atom_site_fract_y
_atom_site_fract_z
_atom_site_occupancy
_atom_site_fract_symmform
Bi1  Bi   1 a  0.6146800000  0.2995400000 -0.0767400000  1.0000000000 Dx,Dy,Dz 
Bi2  Bi   1 a  0.4043900000  0.7070000000  0.5931400000  1.0000000000 Dx,Dy,Dz 
Bi3  Bi   1 a  0.5965500000  0.2980100000  0.3879000000  1.0000000000 Dx,Dy,Dz 
Bi4  Bi   1 a  0.8992500000  0.7015900000  0.6007100000  1.0000000000 Dx,Dy,Dz 
Bi5  Bi   1 a  0.0945200000  0.2999600000  0.3959900000  1.0000000000 Dx,Dy,Dz 
Bi6  Bi   1 a  0.1067600000  0.3031700000 -0.0764700000  1.0000000000 Dx,Dy,Dz 
Bi7  Bi   1 a  0.8962800000  0.1931900000  0.5905700000  1.0000000000 Dx,Dy,Dz 
Bi8  Bi   1 a  0.0897200000  0.8054400000  0.3776500000  1.0000000000 Dx,Dy,Dz 
Bi9  Bi   1 a  0.8979900000  0.2057000000  0.0944700000  1.0000000000 Dx,Dy,Dz 
Bi10 Bi   1 a  0.4212100000  0.2278200000  0.1080300000  1.0000000000 Dx,Dy,Dz 
Bi11 Bi   1 a  0.6218600000  0.8247800000 -0.0867400000  1.0000000000 Dx,Dy,Dz 
Bi12 Bi   1 a  0.3976400000  0.1978600000  0.5928000000  1.0000000000 Dx,Dy,Dz 
Bi13 Bi   1 a  0.6004100000  0.8044200000  0.3877300000  1.0000000000 Dx,Dy,Dz 
Te1  Te   1 a  0.2143400000  0.6040600000  0.8246400000  1.0000000000 Dx,Dy,Dz 
Te2  Te   1 a  0.8056100000  0.4146900000  0.1857400000  1.0000000000 Dx,Dy,Dz 
Te3  Te   1 a  0.2056200000  0.5956500000  0.3063100000  1.0000000000 Dx,Dy,Dz 
Te4  Te   1 a  0.7880000000  0.3835200000  0.6799200000  1.0000000000 Dx,Dy,Dz 
Te5  Te   1 a  0.6948700000  0.5954900000  0.3014200000  1.0000000000 Dx,Dy,Dz 
Te6  Te   1 a  0.3364100000  0.4092100000  0.7655500000  1.0000000000 Dx,Dy,Dz 
Te7  Te   1 a  0.7148700000  0.5993600000  0.8253400000  1.0000000000 Dx,Dy,Dz 
Te8  Te   1 a  0.3009400000  0.4320600000  0.1777600000  1.0000000000 Dx,Dy,Dz 
Te9  Te   1 a  0.7108200000  0.1119400000  0.3000400000  1.0000000000 Dx,Dy,Dz 
Te10 Te   1 a  0.2940800000  0.8964900000  0.6819500000  1.0000000000 Dx,Dy,Dz 
Te11 Te   1 a  0.7157300000  0.1094600000  0.8242700000  1.0000000000 Dx,Dy,Dz 
Te12 Te   1 a  0.2780400000  0.8947500000  0.1877000000  1.0000000000 Dx,Dy,Dz 
Te13 Te   1 a  0.2079400000  0.0970500000  0.8251600000  1.0000000000 Dx,Dy,Dz 
Te14 Te   1 a  0.7789900000  0.8823000000  0.1832100000  1.0000000000 Dx,Dy,Dz 
Te15 Te   1 a  0.1398200000  0.0434800000  0.2590600000  1.0000000000 Dx,Dy,Dz 
Te16 Te   1 a  0.7865100000  0.8952800000  0.6827600000  1.0000000000 Dx,Dy,Dz 
Te17 Te   1 a  0.0051100000 -0.0066700000  0.0054700000  1.0000000000 Dx,Dy,Dz 
Te18 Te   1 a -0.0019500000 -0.0110700000  0.4941400000  1.0000000000 Dx,Dy,Dz 
Te19 Te   1 a  0.5008800000 -0.0004900000  0.5019500000  1.0000000000 Dx,Dy,Dz 
Te20 Te   1 a  0.4918300000 -0.0121700000  0.0066900000  1.0000000000 Dx,Dy,Dz 
Te21 Te   1 a  0.5009800000  0.5017700000  0.4951600000  1.0000000000 Dx,Dy,Dz 
Te22 Te   1 a  0.5070500000  0.5057500000  0.0087100000  1.0000000000 Dx,Dy,Dz 
Te23 Te   1 a  0.0041200000  0.5104600000  0.0049900000  1.0000000000 Dx,Dy,Dz 
Te24 Te   1 a -0.0219200000  0.4791500000  0.4829400000  1.0000000000 Dx,Dy,Dz
