# CIF file created by FINDSYM, version 7.1.3

data_findsym-output
_audit_creation_method FINDSYM

_cell_length_a     7.5977879185
_cell_length_b     4.3865804842
_cell_length_c     20.3145955848
_cell_angle_alpha  90.0000000000
_cell_angle_beta   97.1615915695
_cell_angle_gamma  90.0000000000
_cell_volume       671.7690858260

_symmetry_space_group_name_H-M "P 1 m 1"
_symmetry_Int_Tables_number 6
_space_group.reference_setting '006:P -2y'
_space_group.transform_Pp_abc a,b,c;0,0,0

loop_
_space_group_symop_id
_space_group_symop_operation_xyz
1 x,y,z
2 x,-y,z

loop_
_atom_type_symbol
Bi    
Te    

loop_
_atom_site_label
_atom_site_type_symbol
_atom_site_symmetry_multiplicity
_atom_site_Wyckoff_symbol
_atom_site_fract_x
_atom_site_fract_y
_atom_site_fract_z
_atom_site_occupancy
_atom_site_fract_symmform
Bi1  Bi   1 a  0.2948800000  0.0000000000  0.8940800000  1.0000000000 Dx,0,Dz 
Bi2  Bi   1 a  0.6992400000  0.0000000000  0.0994800000  1.0000000000 Dx,0,Dz 
Bi3  Bi   1 b  0.2979900000  0.5000000000  0.3979100000  1.0000000000 Dx,0,Dz 
Bi4  Bi   1 b  0.6981400000  0.5000000000  0.5987800000  1.0000000000 Dx,0,Dz 
Bi5  Bi   1 a  0.7999900000  0.0000000000  0.3992100000  1.0000000000 Dx,0,Dz 
Bi6  Bi   1 a  0.2002100000  0.0000000000  0.6007100000  1.0000000000 Dx,0,Dz 
Bi7  Bi   1 b  0.8052900000  0.5000000000  0.8998100000  1.0000000000 Dx,0,Dz 
Bi8  Bi   1 b  0.2022800000  0.5000000000  0.1018400000  1.0000000000 Dx,0,Dz 
Bi9  Bi   1 b  0.1032600000  0.5000000000  0.8068800000  1.0000000000 Dx,0,Dz 
Te1  Te   1 a  0.3962700000  0.0000000000  0.1885300000  1.0000000000 Dx,0,Dz 
Te2  Te   1 a  0.6071400000  0.0000000000  0.8162100000  1.0000000000 Dx,0,Dz 
Te3  Te   1 b  0.3942900000  0.5000000000  0.6872100000  1.0000000000 Dx,0,Dz 
Te4  Te   1 b  0.6049300000  0.5000000000  0.3130700000  1.0000000000 Dx,0,Dz 
Te5  Te   1 a  0.8955200000  0.0000000000  0.6868000000  1.0000000000 Dx,0,Dz 
Te6  Te   1 a  0.1029800000  0.0000000000  0.3124200000  1.0000000000 Dx,0,Dz 
Te7  Te   1 b  0.8958600000  0.5000000000  0.1881400000  1.0000000000 Dx,0,Dz 
Te8  Te   1 a  0.0012600000  0.0000000000  0.0022200000  1.0000000000 Dx,0,Dz 
Te9  Te   1 b -0.0002800000  0.5000000000  0.5010200000  1.0000000000 Dx,0,Dz 
Te10 Te   1 a  0.4998600000  0.0000000000  0.5007000000  1.0000000000 Dx,0,Dz 
Te11 Te   1 b  0.5008800000  0.5000000000  0.0049600000  1.0000000000 Dx,0,Dz
