# CIF file created by FINDSYM, version 7.1.3

data_findsym-output
_audit_creation_method FINDSYM

_cell_length_a     8.7731609684
_cell_length_b     8.7731652838
_cell_length_c     20.7828006246
_cell_angle_alpha  89.9999997110
_cell_angle_beta   102.1849109150
_cell_angle_gamma  119.9999489145
_cell_volume       1343.5381716515

_symmetry_space_group_name_H-M "P 1"
_symmetry_Int_Tables_number 1
_space_group.reference_setting '001:P 1'
_space_group.transform_Pp_abc a,b,c;0,0,0

loop_
_space_group_symop_id
_space_group_symop_operation_xyz
1 x,y,z

loop_
_atom_type_symbol
Bi    
Te    

loop_
_atom_site_label
_atom_site_type_symbol
_atom_site_symmetry_multiplicity
_atom_site_Wyckoff_symbol
_atom_site_fract_x
_atom_site_fract_y
_atom_site_fract_z
_atom_site_occupancy
_atom_site_fract_symmform
Bi1  Bi   1 a  0.3955900000  0.6971400000  0.0965700000  1.0000000000 Dx,Dy,Dz 
Bi2  Bi   1 a  0.5826900000  0.3013100000  0.8900200000  1.0000000000 Dx,Dy,Dz 
Bi3  Bi   1 a  0.3859500000  0.6961400000  0.6038000000  1.0000000000 Dx,Dy,Dz 
Bi4  Bi   1 a  0.5791500000  0.2900000000  0.3996600000  1.0000000000 Dx,Dy,Dz 
Bi5  Bi   1 a  0.8928300000  0.7049600000  0.6003800000  1.0000000000 Dx,Dy,Dz 
Bi6  Bi   1 a  0.1017500000  0.3395400000  0.3976900000  1.0000000000 Dx,Dy,Dz 
Bi7  Bi   1 a -0.0974300000  0.6993400000  0.0927100000  1.0000000000 Dx,Dy,Dz 
Bi8  Bi   1 a  0.2571900000  0.3807400000  0.8494000000  1.0000000000 Dx,Dy,Dz 
Bi9  Bi   1 a  0.8913200000  0.1909400000  0.6020100000  1.0000000000 Dx,Dy,Dz 
Bi10 Bi   1 a  0.0972400000  0.7717600000  0.4004300000  1.0000000000 Dx,Dy,Dz 
Bi11 Bi   1 a -0.0972600000  0.1995300000  0.1101500000  1.0000000000 Dx,Dy,Dz 
Bi12 Bi   1 a  0.1112700000  0.8036400000 -0.0769600000  1.0000000000 Dx,Dy,Dz 
Bi13 Bi   1 a  0.3993900000  0.1971100000  0.0972500000  1.0000000000 Dx,Dy,Dz 
Bi14 Bi   1 a  0.5862000000  0.7833700000  0.8903000000  1.0000000000 Dx,Dy,Dz 
Bi15 Bi   1 a  0.4007500000  0.1974600000  0.6085000000  1.0000000000 Dx,Dy,Dz 
Bi16 Bi   1 a  0.6123100000  0.8057700000  0.4103100000  1.0000000000 Dx,Dy,Dz 
Te1  Te   1 a  0.7952300000  0.4025400000  0.1856600000  1.0000000000 Dx,Dy,Dz 
Te2  Te   1 a  0.7879600000  0.3938100000  0.6878200000  1.0000000000 Dx,Dy,Dz 
Te3  Te   1 a  0.7060700000  0.6027700000  0.3199300000  1.0000000000 Dx,Dy,Dz 
Te4  Te   1 a  0.2736100000  0.3876900000  0.6940700000  1.0000000000 Dx,Dy,Dz 
Te5  Te   1 a  0.7466800000  0.6225700000  0.8184300000  1.0000000000 Dx,Dy,Dz 
Te6  Te   1 a  0.3019000000  0.3995100000  0.1858300000  1.0000000000 Dx,Dy,Dz 
Te7  Te   1 a  0.7033100000  0.1011400000  0.3195500000  1.0000000000 Dx,Dy,Dz 
Te8  Te   1 a  0.2747700000  0.8873900000  0.6908200000  1.0000000000 Dx,Dy,Dz 
Te9  Te   1 a  0.6751000000  0.0873300000  0.8080000000  1.0000000000 Dx,Dy,Dz 
Te10 Te   1 a  0.2834500000  0.8896400000  0.1827400000  1.0000000000 Dx,Dy,Dz 
Te11 Te   1 a  0.7894600000  0.8865400000  0.1850300000  1.0000000000 Dx,Dy,Dz 
Te12 Te   1 a  0.1934200000  0.0987200000  0.3188300000  1.0000000000 Dx,Dy,Dz 
Te13 Te   1 a  0.7807100000  0.8914100000  0.6876800000  1.0000000000 Dx,Dy,Dz 
Te14 Te   1 a  0.0057000000  0.0051700000 -0.0032900000  1.0000000000 Dx,Dy,Dz 
Te15 Te   1 a -0.0073500000 -0.0024200000  0.4975400000  1.0000000000 Dx,Dy,Dz 
Te16 Te   1 a  0.4849400000 -0.0063900000  0.5070700000  1.0000000000 Dx,Dy,Dz 
Te17 Te   1 a  0.5253700000  0.0119900000  0.0016400000  1.0000000000 Dx,Dy,Dz 
Te18 Te   1 a  0.4800200000  0.4900700000  0.5035400000  1.0000000000 Dx,Dy,Dz 
Te19 Te   1 a  0.4818400000  0.4890200000 -0.0037200000  1.0000000000 Dx,Dy,Dz 
Te20 Te   1 a  0.0013000000  0.4952500000 -0.0040800000  1.0000000000 Dx,Dy,Dz 
Te21 Te   1 a -0.0107900000  0.4933200000  0.5021400000  1.0000000000 Dx,Dy,Dz
