# CIF file created by FINDSYM, version 7.1.3

data_findsym-output
_audit_creation_method FINDSYM

_cell_length_a     4.3865804842
_cell_length_b     7.5977879185
_cell_length_c     20.3145955848
_cell_angle_alpha  97.1615915695
_cell_angle_beta   90.0000258199
_cell_angle_gamma  90.0000348140
_cell_volume       671.7690858257

_symmetry_space_group_name_H-M "P 1"
_symmetry_Int_Tables_number 1
_space_group.reference_setting '001:P 1'
_space_group.transform_Pp_abc a,b,c;0,0,0

loop_
_space_group_symop_id
_space_group_symop_operation_xyz
1 x,y,z

loop_
_atom_type_symbol
Bi    
Te    

loop_
_atom_site_label
_atom_site_type_symbol
_atom_site_symmetry_multiplicity
_atom_site_Wyckoff_symbol
_atom_site_fract_x
_atom_site_fract_y
_atom_site_fract_z
_atom_site_occupancy
_atom_site_fract_symmform
Bi1  Bi   1 a -0.0107800000  0.2975300000  0.8995300000  1.0000000000 Dx,Dy,Dz 
Bi2  Bi   1 a -0.0040200000  0.7000500000  0.0975700000  1.0000000000 Dx,Dy,Dz 
Bi3  Bi   1 a  0.5106600000  0.3020200000  0.3983000000  1.0000000000 Dx,Dy,Dz 
Bi4  Bi   1 a  0.5068800000  0.6993000000  0.5988400000  1.0000000000 Dx,Dy,Dz 
Bi5  Bi   1 a  0.0090300000  0.8019100000  0.3978000000  1.0000000000 Dx,Dy,Dz 
Bi6  Bi   1 a  0.0050700000  0.2007500000  0.5991200000  1.0000000000 Dx,Dy,Dz 
Bi7  Bi   1 a  0.4891000000  0.7998000000 -0.0949200000  1.0000000000 Dx,Dy,Dz 
Te1  Te   1 a  0.4741600000  0.2009700000  0.1051500000  1.0000000000 Dx,Dy,Dz 
Te2  Te   1 a  0.0465200000  0.4001000000  0.1887800000  1.0000000000 Dx,Dy,Dz 
Te3  Te   1 a -0.0226000000  0.6029800000  0.8168600000  1.0000000000 Dx,Dy,Dz 
Te4  Te   1 a  0.5059500000  0.3955600000  0.6852100000  1.0000000000 Dx,Dy,Dz 
Te5  Te   1 a  0.5191500000  0.6057100000  0.3088400000  1.0000000000 Dx,Dy,Dz 
Te6  Te   1 a  0.0072900000  0.8945900000  0.6845000000  1.0000000000 Dx,Dy,Dz 
Te7  Te   1 a  0.0078600000  0.1065400000  0.3131600000  1.0000000000 Dx,Dy,Dz 
Te8  Te   1 a  0.4925000000 -0.0974900000  0.1844900000  1.0000000000 Dx,Dy,Dz 
Te9  Te   1 a  0.4874200000  0.0989900000  0.8157500000  1.0000000000 Dx,Dy,Dz 
Te10 Te   1 a -0.0352700000 -0.0015500000  0.0023000000  1.0000000000 Dx,Dy,Dz 
Te11 Te   1 a  0.5135500000  0.0003000000  0.4973100000  1.0000000000 Dx,Dy,Dz 
Te12 Te   1 a  0.0092100000  0.5010200000  0.4982100000  1.0000000000 Dx,Dy,Dz 
Te13 Te   1 a  0.4883400000  0.4909200000  0.0032200000  1.0000000000 Dx,Dy,Dz
