# CIF file created by FINDSYM, version 7.1.3

data_findsym-output
_audit_creation_method FINDSYM

_cell_length_a     8.7731609684
_cell_length_b     8.7731652838
_cell_length_c     20.7828006246
_cell_angle_alpha  89.9999997110
_cell_angle_beta   102.1849109150
_cell_angle_gamma  119.9999489145
_cell_volume       1343.5381716515

_symmetry_space_group_name_H-M "P 1"
_symmetry_Int_Tables_number 1
_space_group.reference_setting '001:P 1'
_space_group.transform_Pp_abc a,b,c;0,0,0

loop_
_space_group_symop_id
_space_group_symop_operation_xyz
1 x,y,z

loop_
_atom_type_symbol
Bi    
Te    

loop_
_atom_site_label
_atom_site_type_symbol
_atom_site_symmetry_multiplicity
_atom_site_Wyckoff_symbol
_atom_site_fract_x
_atom_site_fract_y
_atom_site_fract_z
_atom_site_occupancy
_atom_site_fract_symmform
Bi1  Bi   1 a  0.6165500000  0.3330500000 -0.0831700000  1.0000000000 Dx,Dy,Dz 
Bi2  Bi   1 a  0.4026700000  0.7213900000  0.6040500000  1.0000000000 Dx,Dy,Dz 
Bi3  Bi   1 a  0.5994700000  0.3192900000  0.4013600000  1.0000000000 Dx,Dy,Dz 
Bi4  Bi   1 a -0.0989500000  0.7232400000  0.6042500000  1.0000000000 Dx,Dy,Dz 
Bi5  Bi   1 a  0.1000000000  0.3209500000  0.4019400000  1.0000000000 Dx,Dy,Dz 
Bi6  Bi   1 a  0.1254200000  0.3208600000 -0.0938400000  1.0000000000 Dx,Dy,Dz 
Bi7  Bi   1 a -0.0980400000  0.2217400000  0.6048200000  1.0000000000 Dx,Dy,Dz 
Bi8  Bi   1 a  0.1015400000  0.8201500000  0.4034300000  1.0000000000 Dx,Dy,Dz 
Bi9  Bi   1 a  0.1148700000  0.8292000000 -0.0895100000  1.0000000000 Dx,Dy,Dz 
Bi10 Bi   1 a  0.4145800000  0.2460200000  0.0919100000  1.0000000000 Dx,Dy,Dz 
Bi11 Bi   1 a  0.6110800000  0.8381000000 -0.0994000000  1.0000000000 Dx,Dy,Dz 
Bi12 Bi   1 a  0.4007100000  0.2219800000  0.6040500000  1.0000000000 Dx,Dy,Dz 
Bi13 Bi   1 a  0.6006200000  0.8209600000  0.4023100000  1.0000000000 Dx,Dy,Dz 
Te1  Te   1 a  0.2141800000  0.6318200000  0.8213900000  1.0000000000 Dx,Dy,Dz 
Te2  Te   1 a -0.0791900000  0.2157500000  0.1153900000  1.0000000000 Dx,Dy,Dz 
Te3  Te   1 a  0.2128300000  0.6287800000  0.3173300000  1.0000000000 Dx,Dy,Dz 
Te4  Te   1 a  0.7900000000  0.4168600000  0.6900300000  1.0000000000 Dx,Dy,Dz 
Te5  Te   1 a  0.7070500000  0.6231600000  0.3153800000  1.0000000000 Dx,Dy,Dz 
Te6  Te   1 a  0.2926000000  0.4183300000  0.6908400000  1.0000000000 Dx,Dy,Dz 
Te7  Te   1 a  0.7183600000  0.6310200000  0.8226500000  1.0000000000 Dx,Dy,Dz 
Te8  Te   1 a  0.2817700000  0.3902500000  0.1916400000  1.0000000000 Dx,Dy,Dz 
Te9  Te   1 a  0.7097600000  0.1264000000  0.3158200000  1.0000000000 Dx,Dy,Dz 
Te10 Te   1 a  0.2915300000 -0.0828300000  0.6900500000  1.0000000000 Dx,Dy,Dz 
Te11 Te   1 a  0.7191900000  0.1413700000  0.8213600000  1.0000000000 Dx,Dy,Dz 
Te12 Te   1 a -0.0270500000  0.7228200000  0.1027900000  1.0000000000 Dx,Dy,Dz 
Te13 Te   1 a  0.2236800000  0.1305700000  0.8203400000  1.0000000000 Dx,Dy,Dz 
Te14 Te   1 a  0.8206400000  0.4294700000  0.1818300000  1.0000000000 Dx,Dy,Dz 
Te15 Te   1 a  0.2065800000  0.1207600000  0.3161300000  1.0000000000 Dx,Dy,Dz 
Te16 Te   1 a  0.7906500000 -0.0840200000  0.6910300000  1.0000000000 Dx,Dy,Dz 
Te17 Te   1 a  0.0059600000  0.0287100000  0.0085200000  1.0000000000 Dx,Dy,Dz 
Te18 Te   1 a  0.0002400000  0.0221200000  0.5031100000  1.0000000000 Dx,Dy,Dz 
Te19 Te   1 a  0.4990300000  0.0207200000  0.5028200000  1.0000000000 Dx,Dy,Dz 
Te20 Te   1 a  0.5119500000  0.0244400000  0.0073100000  1.0000000000 Dx,Dy,Dz 
Te21 Te   1 a  0.4997300000  0.5213600000  0.5020400000  1.0000000000 Dx,Dy,Dz 
Te22 Te   1 a  0.5040200000  0.5316200000  0.0073900000  1.0000000000 Dx,Dy,Dz 
Te23 Te   1 a  0.0189100000  0.5366000000  0.0091700000  1.0000000000 Dx,Dy,Dz 
Te24 Te   1 a -0.0030900000  0.5169500000  0.5032000000  1.0000000000 Dx,Dy,Dz
