# CIF file created by FINDSYM, version 7.1.3

data_findsym-output
_audit_creation_method FINDSYM

_cell_length_a     8.7731609684
_cell_length_b     8.7731652838
_cell_length_c     20.7828006246
_cell_angle_alpha  89.9999997110
_cell_angle_beta   102.1849109150
_cell_angle_gamma  119.9999489145
_cell_volume       1343.5381716515

_symmetry_space_group_name_H-M "P 1"
_symmetry_Int_Tables_number 1
_space_group.reference_setting '001:P 1'
_space_group.transform_Pp_abc a,b,c;0,0,0

loop_
_space_group_symop_id
_space_group_symop_operation_xyz
1 x,y,z

loop_
_atom_type_symbol
Bi    
Te    

loop_
_atom_site_label
_atom_site_type_symbol
_atom_site_symmetry_multiplicity
_atom_site_Wyckoff_symbol
_atom_site_fract_x
_atom_site_fract_y
_atom_site_fract_z
_atom_site_occupancy
_atom_site_fract_symmform
Bi1  Bi   1 a  0.6169400000  0.3000800000 -0.0800200000  1.0000000000 Dx,Dy,Dz 
Bi2  Bi   1 a  0.6289800000  0.3361400000  0.4248900000  1.0000000000 Dx,Dy,Dz 
Bi3  Bi   1 a -0.0988700000  0.7107500000  0.5877800000  1.0000000000 Dx,Dy,Dz 
Bi4  Bi   1 a  0.8960200000  0.7012200000  0.1102800000  1.0000000000 Dx,Dy,Dz 
Bi5  Bi   1 a  0.0912700000  0.3034600000 -0.0899100000  1.0000000000 Dx,Dy,Dz 
Bi6  Bi   1 a -0.0990800000  0.2056800000  0.5971100000  1.0000000000 Dx,Dy,Dz 
Bi7  Bi   1 a  0.1078400000  0.7859000000  0.3893900000  1.0000000000 Dx,Dy,Dz 
Bi8  Bi   1 a -0.0818000000  0.2023600000  0.1083300000  1.0000000000 Dx,Dy,Dz 
Bi9  Bi   1 a  0.0789300000  0.7901800000  0.8890300000  1.0000000000 Dx,Dy,Dz 
Bi10 Bi   1 a  0.3984200000  0.1933500000  0.1014800000  1.0000000000 Dx,Dy,Dz 
Bi11 Bi   1 a  0.5938700000  0.7928400000 -0.0997100000  1.0000000000 Dx,Dy,Dz 
Bi12 Bi   1 a  0.3994600000  0.2271300000  0.6027100000  1.0000000000 Dx,Dy,Dz 
Bi13 Bi   1 a  0.5936500000  0.8068100000  0.3999700000  1.0000000000 Dx,Dy,Dz 
Te1  Te   1 a  0.2005300000  0.5908400000  0.8145100000  1.0000000000 Dx,Dy,Dz 
Te2  Te   1 a  0.7886400000  0.3897600000  0.1904500000  1.0000000000 Dx,Dy,Dz 
Te3  Te   1 a  0.2045600000  0.5624300000  0.3213400000  1.0000000000 Dx,Dy,Dz 
Te4  Te   1 a  0.7922800000  0.4067600000  0.6824600000  1.0000000000 Dx,Dy,Dz 
Te5  Te   1 a  0.7075700000  0.6060100000  0.3165400000  1.0000000000 Dx,Dy,Dz 
Te6  Te   1 a  0.2881600000  0.4317300000  0.6768100000  1.0000000000 Dx,Dy,Dz 
Te7  Te   1 a  0.6866900000  0.5805700000  0.8153400000  1.0000000000 Dx,Dy,Dz 
Te8  Te   1 a  0.3089300000  0.4411600000  0.1724300000  1.0000000000 Dx,Dy,Dz 
Te9  Te   1 a  0.6558600000  0.1117500000  0.3170500000  1.0000000000 Dx,Dy,Dz 
Te10 Te   1 a  0.2844200000 -0.0714000000  0.6993900000  1.0000000000 Dx,Dy,Dz 
Te11 Te   1 a  0.7187100000  0.1025700000  0.8199900000  1.0000000000 Dx,Dy,Dz 
Te12 Te   1 a  0.2922300000  0.8368400000  0.1826100000  1.0000000000 Dx,Dy,Dz 
Te13 Te   1 a  0.1147900000  0.0425600000  0.7683800000  1.0000000000 Dx,Dy,Dz 
Te14 Te   1 a  0.8775100000 -0.0631800000  0.2078500000  1.0000000000 Dx,Dy,Dz 
Te15 Te   1 a  0.2808500000  0.0580600000  0.2771100000  1.0000000000 Dx,Dy,Dz 
Te16 Te   1 a  0.7679100000  0.8803600000  0.6781800000  1.0000000000 Dx,Dy,Dz 
Te17 Te   1 a -0.0044800000 -0.0081800000  0.0017600000  1.0000000000 Dx,Dy,Dz 
Te18 Te   1 a  0.0043300000  0.0129000000  0.4964700000  1.0000000000 Dx,Dy,Dz 
Te19 Te   1 a  0.4927900000  0.0034900000  0.5015000000  1.0000000000 Dx,Dy,Dz 
Te20 Te   1 a  0.4898300000 -0.0155100000  0.0032100000  1.0000000000 Dx,Dy,Dz 
Te21 Te   1 a  0.5073000000  0.5349800000  0.5121900000  1.0000000000 Dx,Dy,Dz 
Te22 Te   1 a  0.5002700000  0.4885000000  0.0075000000  1.0000000000 Dx,Dy,Dz 
Te23 Te   1 a  0.0019300000  0.5083700000 -0.0019600000  1.0000000000 Dx,Dy,Dz 
Te24 Te   1 a  0.0127000000  0.5127300000  0.4974700000  1.0000000000 Dx,Dy,Dz
