# CIF file created by FINDSYM, version 7.1.3

data_findsym-output
_audit_creation_method FINDSYM

_cell_length_a     15.1955758369
_cell_length_b     8.7731609684
_cell_length_c     20.7828083038
_cell_angle_alpha  90.0000000000
_cell_angle_beta   104.1062565540
_cell_angle_gamma  90.0000000000
_cell_volume       2687.0763433039

_symmetry_space_group_name_H-M "C 1 2/m 1"
_symmetry_Int_Tables_number 12
_space_group.reference_setting '012:-C 2y'
_space_group.transform_Pp_abc a,b,c;0,0,0

loop_
_space_group_symop_id
_space_group_symop_operation_xyz
1 x,y,z
2 -x,y,-z
3 -x,-y,-z
4 x,-y,z
5 x+1/2,y+1/2,z
6 -x+1/2,y+1/2,-z
7 -x+1/2,-y+1/2,-z
8 x+1/2,-y+1/2,z

loop_
_atom_type_symbol
Bi    
Te    

loop_
_atom_site_label
_atom_site_type_symbol
_atom_site_symmetry_multiplicity
_atom_site_Wyckoff_symbol
_atom_site_fract_x
_atom_site_fract_y
_atom_site_fract_z
_atom_site_occupancy
_atom_site_fract_symmform
Bi1 Bi   8 j  0.7005512500  0.2473162500  0.6020000000  1.0000000000 Dx,Dy,Dz 
Bi2 Bi   4 i -0.0507925000  0.0000000000  0.0991650000  1.0000000000 Dx,0,Dz  
Bi3 Bi   4 i  0.5492600000  0.0000000000  0.8981950000  1.0000000000 Dx,0,Dz  
Bi4 Bi   8 j  0.7001337500  0.2494112500  0.1007050000  1.0000000000 Dx,Dy,Dz 
Bi5 Bi   4 i -0.0511000000  0.0000000000  0.5971800000  1.0000000000 Dx,0,Dz  
Bi6 Bi   4 i  0.5463525000  0.0000000000  0.3956500000  1.0000000000 Dx,0,Dz  
Bi7 Bi   4 i  0.6495750000  0.0000000000  0.6953700000  1.0000000000 Dx,0,Dz  
Te1 Te   8 j  0.6044450000  0.2499525000  0.3141575000  1.0000000000 Dx,Dy,Dz 
Te2 Te   4 i  0.8540775000  0.0000000000  0.8130450000  1.0000000000 Dx,0,Dz  
Te3 Te   4 i  0.6459925000  0.0000000000  0.1870600000  1.0000000000 Dx,0,Dz  
Te4 Te   8 j  0.6048912500  0.2490037500  0.8125725000  1.0000000000 Dx,Dy,Dz 
Te5 Te   4 i  0.8545525000  0.0000000000  0.3144850000  1.0000000000 Dx,0,Dz  
Te6 Te   4 h  0.0000000000  0.2505025000  0.5000000000  1.0000000000 0,Dy,0   
Te7 Te   4 i  0.2497600000  0.0000000000 -0.0002500000  1.0000000000 Dx,0,Dz  
Te8 Te   4 g  0.0000000000  0.2491050000  0.0000000000  1.0000000000 0,Dy,0   
Te9 Te   4 i  0.2493875000  0.0000000000  0.4968550000  1.0000000000 Dx,0,Dz
