# CIF file created by FINDSYM, version 7.1.3

data_findsym-output
_audit_creation_method FINDSYM

_cell_length_a     8.7731609684
_cell_length_b     8.7731652838
_cell_length_c     20.7828006246
_cell_angle_alpha  89.9999997110
_cell_angle_beta   102.1849109150
_cell_angle_gamma  119.9999489145
_cell_volume       1343.5381716515

_symmetry_space_group_name_H-M "P 1"
_symmetry_Int_Tables_number 1
_space_group.reference_setting '001:P 1'
_space_group.transform_Pp_abc a,b,c;0,0,0

loop_
_space_group_symop_id
_space_group_symop_operation_xyz
1 x,y,z

loop_
_atom_type_symbol
Bi    
Te    

loop_
_atom_site_label
_atom_site_type_symbol
_atom_site_symmetry_multiplicity
_atom_site_Wyckoff_symbol
_atom_site_fract_x
_atom_site_fract_y
_atom_site_fract_z
_atom_site_occupancy
_atom_site_fract_symmform
Bi1  Bi   1 a  0.3983100000  0.6984900000  0.0994900000  1.0000000000 Dx,Dy,Dz 
Bi2  Bi   1 a  0.5916100000  0.2946800000  0.8972900000  1.0000000000 Dx,Dy,Dz 
Bi3  Bi   1 a  0.3891100000  0.6697300000  0.6015600000  1.0000000000 Dx,Dy,Dz 
Bi4  Bi   1 a  0.5964700000  0.2893000000  0.3992600000  1.0000000000 Dx,Dy,Dz 
Bi5  Bi   1 a -0.0940100000  0.7074300000  0.5991600000  1.0000000000 Dx,Dy,Dz 
Bi6  Bi   1 a  0.1213300000  0.3346200000  0.3961900000  1.0000000000 Dx,Dy,Dz 
Bi7  Bi   1 a -0.0938500000  0.7069300000  0.0991100000  1.0000000000 Dx,Dy,Dz 
Bi8  Bi   1 a  0.1121300000  0.3350000000  0.8965300000  1.0000000000 Dx,Dy,Dz 
Bi9  Bi   1 a  0.8812500000  0.1949600000  0.5960400000  1.0000000000 Dx,Dy,Dz 
Bi10 Bi   1 a  0.0886700000  0.8030300000  0.4028400000  1.0000000000 Dx,Dy,Dz 
Bi11 Bi   1 a -0.0959900000  0.1943700000  0.0989800000  1.0000000000 Dx,Dy,Dz 
Bi12 Bi   1 a  0.1104700000  0.7729000000  0.8967100000  1.0000000000 Dx,Dy,Dz 
Bi13 Bi   1 a  0.4157400000  0.2068800000  0.1058800000  1.0000000000 Dx,Dy,Dz 
Bi14 Bi   1 a  0.6262900000  0.8119400000 -0.0918300000  1.0000000000 Dx,Dy,Dz 
Bi15 Bi   1 a  0.3822400000  0.2119800000  0.6001100000  1.0000000000 Dx,Dy,Dz 
Bi16 Bi   1 a  0.5675400000  0.7837900000  0.3994400000  1.0000000000 Dx,Dy,Dz 
Te1  Te   1 a  0.8015400000  0.3990200000  0.1864600000  1.0000000000 Dx,Dy,Dz 
Te2  Te   1 a  0.7821900000  0.3937800000  0.6809600000  1.0000000000 Dx,Dy,Dz 
Te3  Te   1 a  0.7040300000  0.6041700000  0.3175400000  1.0000000000 Dx,Dy,Dz 
Te4  Te   1 a  0.7172500000  0.6074900000  0.8174700000  1.0000000000 Dx,Dy,Dz 
Te5  Te   1 a  0.2903200000  0.3971000000  0.1871500000  1.0000000000 Dx,Dy,Dz 
Te6  Te   1 a  0.7145900000  0.1010300000  0.3173400000  1.0000000000 Dx,Dy,Dz 
Te7  Te   1 a  0.2917100000  0.8927800000  0.6816400000  1.0000000000 Dx,Dy,Dz 
Te8  Te   1 a  0.7178800000  0.1073100000  0.8169500000  1.0000000000 Dx,Dy,Dz 
Te9  Te   1 a  0.2916200000  0.8924500000  0.1877000000  1.0000000000 Dx,Dy,Dz 
Te10 Te   1 a  0.2050800000  0.1029400000  0.8167400000  1.0000000000 Dx,Dy,Dz 
Te11 Te   1 a  0.7907400000  0.8940700000  0.1856000000  1.0000000000 Dx,Dy,Dz 
Te12 Te   1 a  0.2073600000  0.1074500000  0.3154000000  1.0000000000 Dx,Dy,Dz 
Te13 Te   1 a  0.7823700000  0.8896300000  0.6827600000  1.0000000000 Dx,Dy,Dz 
Te14 Te   1 a  0.0066900000  0.0017300000 -0.0041800000  1.0000000000 Dx,Dy,Dz 
Te15 Te   1 a -0.0045000000  0.0021300000  0.4925000000  1.0000000000 Dx,Dy,Dz 
Te16 Te   1 a  0.4978300000 -0.0044000000  0.5064400000  1.0000000000 Dx,Dy,Dz 
Te17 Te   1 a  0.4988100000  0.0002100000  0.0014000000  1.0000000000 Dx,Dy,Dz 
Te18 Te   1 a  0.4980800000  0.4958900000  0.4993200000  1.0000000000 Dx,Dy,Dz 
Te19 Te   1 a  0.4997800000  0.4974000000  0.0017300000  1.0000000000 Dx,Dy,Dz 
Te20 Te   1 a  0.0003400000  0.4994300000 -0.0004500000  1.0000000000 Dx,Dy,Dz 
Te21 Te   1 a -0.0005400000  0.4976200000  0.4985000000  1.0000000000 Dx,Dy,Dz
