# CIF file created by FINDSYM, version 7.1.3

data_findsym-output
_audit_creation_method FINDSYM

_cell_length_a     15.1955683624
_cell_length_b     8.7731652838
_cell_length_c     10.3914003123
_cell_angle_alpha  90.0000000000
_cell_angle_beta   104.1061723083
_cell_angle_gamma  90.0000000000
_cell_volume       1343.5381716525

_symmetry_space_group_name_H-M "C 1 m 1"
_symmetry_Int_Tables_number 8
_space_group.reference_setting '008:C -2y'
_space_group.transform_Pp_abc a,b,c;0,0,0

loop_
_space_group_symop_id
_space_group_symop_operation_xyz
1 x,y,z
2 x,-y,z
3 x+1/2,y+1/2,z
4 x+1/2,-y+1/2,z

loop_
_atom_type_symbol
Bi    
Te    

loop_
_atom_site_label
_atom_site_type_symbol
_atom_site_symmetry_multiplicity
_atom_site_Wyckoff_symbol
_atom_site_fract_x
_atom_site_fract_y
_atom_site_fract_z
_atom_site_occupancy
_atom_site_fract_symmform
Bi1  Bi   2 a  0.2999500000  0.0000000000  0.7993200000  1.0000000000 Dx,0,Dz  
Bi2  Bi   2 a  0.7008500000  0.0000000000  0.1958800000  1.0000000000 Dx,0,Dz  
Bi3  Bi   4 b  0.5495062500  0.2492937500  0.7972650000  1.0000000000 Dx,Dy,Dz 
Bi4  Bi   4 b -0.0506262500  0.2515337500  0.2005050000  1.0000000000 Dx,Dy,Dz 
Bi5  Bi   2 a  0.8009725000  0.0000000000  0.8058300000  1.0000000000 Dx,0,Dz  
Te1  Te   2 a  0.1976000000  0.0000000000  0.2042700000  1.0000000000 Dx,0,Dz  
Te2  Te   2 a  0.4062850000  0.0000000000  0.3820700000  1.0000000000 Dx,0,Dz  
Te3  Te   2 a  0.6008650000  0.0000000000  0.6155500000  1.0000000000 Dx,0,Dz  
Te4  Te   4 b  0.6474650000  0.2557350000  0.3684600000  1.0000000000 Dx,Dy,Dz 
Te5  Te   4 b  0.8538075000  0.2484075000  0.6306100000  1.0000000000 Dx,Dy,Dz 
Te6  Te   2 a  0.8955900000  0.0000000000  0.3710200000  1.0000000000 Dx,0,Dz  
Te7  Te   2 a  0.1039525000  0.0000000000  0.6275300000  1.0000000000 Dx,0,Dz  
Te8  Te   2 a -0.0035200000  0.0000000000 -0.0046700000  1.0000000000 Dx,0,Dz  
Te9  Te   4 b  0.2485975000  0.2444475000  0.0054700000  1.0000000000 Dx,Dy,Dz 
Te10 Te   2 a  0.4999425000  0.0000000000 -0.0014500000  1.0000000000 Dx,0,Dz
