# CIF file created by FINDSYM, version 7.1.3

data_findsym-output
_audit_creation_method FINDSYM

_cell_length_a     8.7731609684
_cell_length_b     8.7731652838
_cell_length_c     20.7828006246
_cell_angle_alpha  89.9999997110
_cell_angle_beta   102.1849109150
_cell_angle_gamma  119.9999489145
_cell_volume       1343.5381716515

_symmetry_space_group_name_H-M "P 1"
_symmetry_Int_Tables_number 1
_space_group.reference_setting '001:P 1'
_space_group.transform_Pp_abc a,b,c;0,0,0

loop_
_space_group_symop_id
_space_group_symop_operation_xyz
1 x,y,z

loop_
_atom_type_symbol
Bi    
Te    

loop_
_atom_site_label
_atom_site_type_symbol
_atom_site_symmetry_multiplicity
_atom_site_Wyckoff_symbol
_atom_site_fract_x
_atom_site_fract_y
_atom_site_fract_z
_atom_site_occupancy
_atom_site_fract_symmform
Bi1  Bi   1 a  0.5967600000  0.3124900000 -0.0814800000  1.0000000000 Dx,Dy,Dz 
Bi2  Bi   1 a  0.6029700000  0.2983300000  0.4014900000  1.0000000000 Dx,Dy,Dz 
Bi3  Bi   1 a  0.1045800000  0.3093600000  0.4185600000  1.0000000000 Dx,Dy,Dz 
Bi4  Bi   1 a  0.8942000000  0.7127200000  0.1072600000  1.0000000000 Dx,Dy,Dz 
Bi5  Bi   1 a  0.0937900000  0.3015200000  0.8989200000  1.0000000000 Dx,Dy,Dz 
Bi6  Bi   1 a  0.8974300000  0.2210000000  0.6035300000  1.0000000000 Dx,Dy,Dz 
Bi7  Bi   1 a  0.1013000000  0.8046800000  0.3958400000  1.0000000000 Dx,Dy,Dz 
Bi8  Bi   1 a  0.8955500000  0.1980200000  0.1037000000  1.0000000000 Dx,Dy,Dz 
Bi9  Bi   1 a  0.0930100000  0.7995600000 -0.0991500000  1.0000000000 Dx,Dy,Dz 
Bi10 Bi   1 a  0.3881000000  0.2084500000  0.1056000000  1.0000000000 Dx,Dy,Dz 
Bi11 Bi   1 a  0.5920200000  0.8028900000  0.8980100000  1.0000000000 Dx,Dy,Dz 
Bi12 Bi   1 a  0.4207900000  0.2315400000  0.5940100000  1.0000000000 Dx,Dy,Dz 
Bi13 Bi   1 a  0.6096100000  0.8105100000  0.3980500000  1.0000000000 Dx,Dy,Dz 
Te1  Te   1 a  0.2009700000  0.6047500000  0.8130300000  1.0000000000 Dx,Dy,Dz 
Te2  Te   1 a  0.7835300000  0.3949500000  0.1872800000  1.0000000000 Dx,Dy,Dz 
Te3  Te   1 a  0.2096200000  0.5922500000  0.3187400000  1.0000000000 Dx,Dy,Dz 
Te4  Te   1 a  0.7993100000  0.4309300000  0.6796200000  1.0000000000 Dx,Dy,Dz 
Te5  Te   1 a  0.7094300000  0.5993900000  0.3133900000  1.0000000000 Dx,Dy,Dz 
Te6  Te   1 a  0.3012100000  0.4139700000  0.6850000000  1.0000000000 Dx,Dy,Dz 
Te7  Te   1 a  0.6997400000  0.5939900000  0.8179000000  1.0000000000 Dx,Dy,Dz 
Te8  Te   1 a  0.2874100000  0.4164000000  0.1821600000  1.0000000000 Dx,Dy,Dz 
Te9  Te   1 a  0.7249700000  0.1069900000  0.3153200000  1.0000000000 Dx,Dy,Dz 
Te10 Te   1 a  0.4187700000  0.7296800000  0.6178700000  1.0000000000 Dx,Dy,Dz 
Te11 Te   1 a  0.6959400000  0.1019400000  0.8053100000  1.0000000000 Dx,Dy,Dz 
Te12 Te   1 a  0.2772300000 -0.0781600000  0.2057100000  1.0000000000 Dx,Dy,Dz 
Te13 Te   1 a  0.2016000000  0.1056300000  0.8135700000  1.0000000000 Dx,Dy,Dz 
Te14 Te   1 a  0.7548900000  0.8815800000  0.1819800000  1.0000000000 Dx,Dy,Dz 
Te15 Te   1 a  0.2066100000  0.0951100000  0.2990200000  1.0000000000 Dx,Dy,Dz 
Te16 Te   1 a  0.7643900000 -0.0719800000  0.7088700000  1.0000000000 Dx,Dy,Dz 
Te17 Te   1 a -0.0081900000 -0.0014500000  0.0000400000  1.0000000000 Dx,Dy,Dz 
Te18 Te   1 a -0.0014100000 -0.0097700000  0.5022900000  1.0000000000 Dx,Dy,Dz 
Te19 Te   1 a  0.5022100000 -0.0075800000  0.5021200000  1.0000000000 Dx,Dy,Dz 
Te20 Te   1 a  0.4883100000 -0.0081300000  0.0012200000  1.0000000000 Dx,Dy,Dz 
Te21 Te   1 a  0.5098400000  0.4956100000  0.5004700000  1.0000000000 Dx,Dy,Dz 
Te22 Te   1 a  0.4866000000  0.5012900000  0.0018700000  1.0000000000 Dx,Dy,Dz 
Te23 Te   1 a -0.0071000000  0.4979900000 -0.0000400000  1.0000000000 Dx,Dy,Dz 
Te24 Te   1 a  0.0038300000  0.5034800000  0.5026700000  1.0000000000 Dx,Dy,Dz
