# CIF file created by FINDSYM, version 7.1.3

data_findsym-output
_audit_creation_method FINDSYM

_cell_length_a     15.1955683624
_cell_length_b     8.7731652838
_cell_length_c     20.7828006246
_cell_angle_alpha  90.0000000000
_cell_angle_beta   104.1061723083
_cell_angle_gamma  90.0000000000
_cell_volume       2687.0763433050

_symmetry_space_group_name_H-M "C 1 m 1"
_symmetry_Int_Tables_number 8
_space_group.reference_setting '008:C -2y'
_space_group.transform_Pp_abc a,b,c;0,0,0

loop_
_space_group_symop_id
_space_group_symop_operation_xyz
1 x,y,z
2 x,-y,z
3 x+1/2,y+1/2,z
4 x+1/2,-y+1/2,z

loop_
_atom_type_symbol
Bi    
Te    

loop_
_atom_site_label
_atom_site_type_symbol
_atom_site_symmetry_multiplicity
_atom_site_Wyckoff_symbol
_atom_site_fract_x
_atom_site_fract_y
_atom_site_fract_z
_atom_site_occupancy
_atom_site_fract_symmform
Bi1  Bi   2 a  0.3006650000  0.0000000000  0.8949600000  1.0000000000 Dx,0,Dz  
Bi2  Bi   2 a  0.7008800000  0.0000000000  0.1006900000  1.0000000000 Dx,0,Dz  
Bi3  Bi   2 a  0.2999200000  0.0000000000  0.4007500000  1.0000000000 Dx,0,Dz  
Bi4  Bi   2 a  0.7005700000  0.0000000000  0.6017400000  1.0000000000 Dx,0,Dz  
Bi5  Bi   4 b  0.5495400000  0.2499600000  0.3977300000  1.0000000000 Dx,Dy,Dz 
Bi6  Bi   4 b -0.0497650000  0.2503950000  0.5990400000  1.0000000000 Dx,Dy,Dz 
Bi7  Bi   4 b  0.5481950000  0.2497550000  0.8998600000  1.0000000000 Dx,Dy,Dz 
Bi8  Bi   4 b -0.0504550000  0.2484150000  0.1030300000  1.0000000000 Dx,Dy,Dz 
Bi9  Bi   2 a  0.7997600000  0.0000000000  0.8951900000  1.0000000000 Dx,0,Dz  
Bi10 Bi   2 a  0.1993600000  0.0000000000  0.0984800000  1.0000000000 Dx,0,Dz  
Bi11 Bi   2 a  0.7993800000  0.0000000000  0.3991400000  1.0000000000 Dx,0,Dz  
Bi12 Bi   2 a  0.2003000000  0.0000000000  0.6011500000  1.0000000000 Dx,0,Dz  
Bi13 Bi   4 b  0.8522900000  0.2483800000  0.8062300000  1.0000000000 Dx,Dy,Dz 
Bi14 Bi   2 a  0.8980300000  0.0000000000  0.1963700000  1.0000000000 Dx,0,Dz  
Te1  Te   2 a  0.3959600000  0.0000000000  0.1872100000  1.0000000000 Dx,0,Dz  
Te2  Te   2 a  0.6054300000  0.0000000000  0.8153700000  1.0000000000 Dx,0,Dz  
Te3  Te   2 a  0.3956200000  0.0000000000  0.6880300000  1.0000000000 Dx,0,Dz  
Te4  Te   2 a  0.6045300000  0.0000000000  0.3123500000  1.0000000000 Dx,0,Dz  
Te5  Te   4 b  0.6468450000  0.2500450000  0.6878200000  1.0000000000 Dx,Dy,Dz 
Te6  Te   4 b  0.8540600000  0.2486500000  0.3123500000  1.0000000000 Dx,Dy,Dz 
Te7  Te   4 b  0.6451825000  0.2486325000  0.1869650000  1.0000000000 Dx,Dy,Dz 
Te8  Te   2 a  0.1052800000  0.0000000000  0.8153300000  1.0000000000 Dx,0,Dz  
Te9  Te   2 a  0.8958800000  0.0000000000  0.6869000000  1.0000000000 Dx,0,Dz  
Te10 Te   2 a  0.1022450000  0.0000000000  0.3111200000  1.0000000000 Dx,0,Dz  
Te11 Te   2 a  0.0004300000  0.0000000000  0.0011800000  1.0000000000 Dx,0,Dz  
Te12 Te   2 a  0.0003900000  0.0000000000  0.5011300000  1.0000000000 Dx,0,Dz  
Te13 Te   4 b  0.2504300000  0.2491300000  0.5001900000  1.0000000000 Dx,Dy,Dz 
Te14 Te   4 b  0.2521400000  0.2488300000  0.0044000000  1.0000000000 Dx,Dy,Dz 
Te15 Te   2 a  0.4989050000  0.0000000000 -0.0020500000  1.0000000000 Dx,0,Dz  
Te16 Te   2 a  0.4995300000  0.0000000000  0.4997200000  1.0000000000 Dx,0,Dz
