# CIF file created by FINDSYM, version 7.1.3

data_findsym-output
_audit_creation_method FINDSYM

_cell_length_a     8.7731609684
_cell_length_b     8.7731652838
_cell_length_c     20.7828006246
_cell_angle_alpha  89.9999997110
_cell_angle_beta   102.1849109150
_cell_angle_gamma  119.9999489145
_cell_volume       1343.5381716515

_symmetry_space_group_name_H-M "P 1"
_symmetry_Int_Tables_number 1
_space_group.reference_setting '001:P 1'
_space_group.transform_Pp_abc a,b,c;0,0,0

loop_
_space_group_symop_id
_space_group_symop_operation_xyz
1 x,y,z

loop_
_atom_type_symbol
Bi    
Te    

loop_
_atom_site_label
_atom_site_type_symbol
_atom_site_symmetry_multiplicity
_atom_site_Wyckoff_symbol
_atom_site_fract_x
_atom_site_fract_y
_atom_site_fract_z
_atom_site_occupancy
_atom_site_fract_symmform
Bi1  Bi   1 a  0.6024200000  0.2961300000 -0.0918900000  1.0000000000 Dx,Dy,Dz 
Bi2  Bi   1 a  0.4129300000  0.7161100000  0.6162600000  1.0000000000 Dx,Dy,Dz 
Bi3  Bi   1 a  0.6170400000  0.3078000000  0.4127200000  1.0000000000 Dx,Dy,Dz 
Bi4  Bi   1 a -0.0821500000  0.7163000000  0.6160900000  1.0000000000 Dx,Dy,Dz 
Bi5  Bi   1 a  0.1013500000  0.3073200000  0.4126300000  1.0000000000 Dx,Dy,Dz 
Bi6  Bi   1 a  0.8818100000  0.6837500000  0.0780500000  1.0000000000 Dx,Dy,Dz 
Bi7  Bi   1 a -0.0998600000  0.1958300000  0.6066300000  1.0000000000 Dx,Dy,Dz 
Bi8  Bi   1 a  0.1001700000  0.7990600000  0.4016200000  1.0000000000 Dx,Dy,Dz 
Bi9  Bi   1 a  0.8910000000  0.2069900000  0.0885900000  1.0000000000 Dx,Dy,Dz 
Bi10 Bi   1 a  0.1007700000  0.8085100000  0.8921200000  1.0000000000 Dx,Dy,Dz 
Bi11 Bi   1 a  0.4050300000  0.2066200000  0.0879900000  1.0000000000 Dx,Dy,Dz 
Bi12 Bi   1 a  0.5993400000  0.8078700000  0.8918800000  1.0000000000 Dx,Dy,Dz 
Bi13 Bi   1 a  0.4022000000  0.1975100000  0.6080700000  1.0000000000 Dx,Dy,Dz 
Bi14 Bi   1 a  0.5999000000  0.7971200000  0.4037600000  1.0000000000 Dx,Dy,Dz 
Te1  Te   1 a  0.2088100000  0.6066200000  0.8116500000  1.0000000000 Dx,Dy,Dz 
Te2  Te   1 a  0.7861500000  0.3938200000  0.1778500000  1.0000000000 Dx,Dy,Dz 
Te3  Te   1 a  0.2055600000  0.5999800000  0.3193900000  1.0000000000 Dx,Dy,Dz 
Te4  Te   1 a  0.7932300000  0.3942500000  0.6919900000  1.0000000000 Dx,Dy,Dz 
Te5  Te   1 a  0.7130900000  0.5994900000  0.3196400000  1.0000000000 Dx,Dy,Dz 
Te6  Te   1 a  0.2912000000  0.3932300000  0.6920500000  1.0000000000 Dx,Dy,Dz 
Te7  Te   1 a  0.7054200000  0.5967700000  0.8143500000  1.0000000000 Dx,Dy,Dz 
Te8  Te   1 a  0.2856600000  0.3877300000  0.1825100000  1.0000000000 Dx,Dy,Dz 
Te9  Te   1 a  0.7152200000  0.1102400000  0.3225600000  1.0000000000 Dx,Dy,Dz 
Te10 Te   1 a  0.3095900000 -0.0878700000  0.7079500000  1.0000000000 Dx,Dy,Dz 
Te11 Te   1 a  0.7212700000  0.1175200000  0.8160400000  1.0000000000 Dx,Dy,Dz 
Te12 Te   1 a  0.2837300000  0.8838300000  0.1755700000  1.0000000000 Dx,Dy,Dz 
Te13 Te   1 a  0.2122400000  0.1179200000  0.8163900000  1.0000000000 Dx,Dy,Dz 
Te14 Te   1 a  0.7829900000  0.8866000000  0.1772200000  1.0000000000 Dx,Dy,Dz 
Te15 Te   1 a  0.1526100000  0.0589600000  0.2394300000  1.0000000000 Dx,Dy,Dz 
Te16 Te   1 a  0.8014700000 -0.0948100000  0.6991400000  1.0000000000 Dx,Dy,Dz 
Te17 Te   1 a -0.0024900000  0.0010800000 -0.0057000000  1.0000000000 Dx,Dy,Dz 
Te18 Te   1 a -0.0005400000 -0.0051400000  0.5050500000  1.0000000000 Dx,Dy,Dz 
Te19 Te   1 a  0.4992500000 -0.0053600000  0.5051100000  1.0000000000 Dx,Dy,Dz 
Te20 Te   1 a  0.4938400000 -0.0149700000  0.0016600000  1.0000000000 Dx,Dy,Dz 
Te21 Te   1 a  0.5063700000  0.5054300000  0.5090300000  1.0000000000 Dx,Dy,Dz 
Te22 Te   1 a  0.4888100000  0.5005400000 -0.0018200000  1.0000000000 Dx,Dy,Dz 
Te23 Te   1 a  0.0116400000  0.5004600000 -0.0016300000  1.0000000000 Dx,Dy,Dz 
Te24 Te   1 a  0.0029300000  0.5067800000  0.5000000000  1.0000000000 Dx,Dy,Dz
