# CIF file created by FINDSYM, version 7.1.3

data_findsym-output
_audit_creation_method FINDSYM

_cell_length_a     15.1955683624
_cell_length_b     8.7731652838
_cell_length_c     20.7828006246
_cell_angle_alpha  90.0000000000
_cell_angle_beta   104.1061723083
_cell_angle_gamma  90.0000000000
_cell_volume       2687.0763433050

_symmetry_space_group_name_H-M "C 1 m 1"
_symmetry_Int_Tables_number 8
_space_group.reference_setting '008:C -2y'
_space_group.transform_Pp_abc a,b,c;0,0,0

loop_
_space_group_symop_id
_space_group_symop_operation_xyz
1 x,y,z
2 x,-y,z
3 x+1/2,y+1/2,z
4 x+1/2,-y+1/2,z

loop_
_atom_type_symbol
Bi    
Te    

loop_
_atom_site_label
_atom_site_type_symbol
_atom_site_symmetry_multiplicity
_atom_site_Wyckoff_symbol
_atom_site_fract_x
_atom_site_fract_y
_atom_site_fract_z
_atom_site_occupancy
_atom_site_fract_symmform
Bi1  Bi   2 a  0.3047000000  0.0000000000  0.8991000000  1.0000000000 Dx,0,Dz  
Bi2  Bi   2 a  0.7084050000  0.0000000000  0.1014400000  1.0000000000 Dx,0,Dz  
Bi3  Bi   2 a  0.3033200000  0.0000000000  0.3995100000  1.0000000000 Dx,0,Dz  
Bi4  Bi   2 a  0.7065000000  0.0000000000  0.6020000000  1.0000000000 Dx,0,Dz  
Bi5  Bi   4 b  0.5501850000  0.2566950000  0.4014500000  1.0000000000 Dx,Dy,Dz 
Bi6  Bi   4 b -0.0531800000  0.2836500000  0.6040350000  1.0000000000 Dx,Dy,Dz 
Bi7  Bi   4 b  0.5513750000  0.2577250000 -0.0946800000  1.0000000000 Dx,Dy,Dz 
Bi8  Bi   4 b -0.0532700000  0.2829850000  0.1051950000  1.0000000000 Dx,Dy,Dz 
Bi9  Bi   2 a  0.7764600000  0.0000000000  0.8942500000  1.0000000000 Dx,0,Dz  
Bi10 Bi   2 a  0.1868550000  0.0000000000  0.0910000000  1.0000000000 Dx,0,Dz  
Bi11 Bi   2 a  0.7944300000  0.0000000000  0.3941600000  1.0000000000 Dx,0,Dz  
Bi12 Bi   2 a  0.1881900000  0.0000000000  0.5923900000  1.0000000000 Dx,0,Dz  
Te1  Te   2 a  0.6016200000  0.0000000000  0.3137000000  1.0000000000 Dx,0,Dz  
Te2  Te   4 b  0.6431425000  0.2481375000  0.6829950000  1.0000000000 Dx,Dy,Dz 
Te3  Te   4 b  0.8573800000  0.2517800000  0.3124800000  1.0000000000 Dx,Dy,Dz 
Te4  Te   4 b  0.6449625000  0.2509075000  0.1822150000  1.0000000000 Dx,Dy,Dz 
Te5  Te   4 b  0.8582100000  0.2441850000  0.8176050000  1.0000000000 Dx,Dy,Dz 
Te6  Te   2 a -0.0975450000  0.0000000000  0.1839400000  1.0000000000 Dx,0,Dz  
Te7  Te   2 a  0.1074750000  0.0000000000  0.8177000000  1.0000000000 Dx,0,Dz  
Te8  Te   2 a -0.0998000000  0.0000000000  0.6832200000  1.0000000000 Dx,0,Dz  
Te9  Te   2 a  0.1071800000  0.0000000000  0.3143700000  1.0000000000 Dx,0,Dz  
Te10 Te   2 a -0.0049250000  0.0000000000 -0.0002700000  1.0000000000 Dx,0,Dz  
Te11 Te   2 a -0.0010500000  0.0000000000  0.5047700000  1.0000000000 Dx,0,Dz  
Te12 Te   4 b  0.2526100000  0.2507850000  0.4986600000  1.0000000000 Dx,Dy,Dz 
Te13 Te   4 b  0.2563250000  0.2518600000  0.0001800000  1.0000000000 Dx,Dy,Dz 
Te14 Te   2 a  0.5048300000  0.0000000000  0.0024200000  1.0000000000 Dx,0,Dz  
Te15 Te   2 a  0.5025950000  0.0000000000  0.5002000000  1.0000000000 Dx,0,Dz
