# CIF file created by FINDSYM, version 7.1.3

data_findsym-output
_audit_creation_method FINDSYM

_cell_length_a     8.7731609684
_cell_length_b     8.7731652838
_cell_length_c     20.7828006246
_cell_angle_alpha  89.9999997110
_cell_angle_beta   102.1849109150
_cell_angle_gamma  119.9999489145
_cell_volume       1343.5381716515

_symmetry_space_group_name_H-M "P 1"
_symmetry_Int_Tables_number 1
_space_group.reference_setting '001:P 1'
_space_group.transform_Pp_abc a,b,c;0,0,0

loop_
_space_group_symop_id
_space_group_symop_operation_xyz
1 x,y,z

loop_
_atom_type_symbol
Bi    
Te    

loop_
_atom_site_label
_atom_site_type_symbol
_atom_site_symmetry_multiplicity
_atom_site_Wyckoff_symbol
_atom_site_fract_x
_atom_site_fract_y
_atom_site_fract_z
_atom_site_occupancy
_atom_site_fract_symmform
Bi1  Bi   1 a  0.3927300000  0.6953300000  0.1010500000  1.0000000000 Dx,Dy,Dz 
Bi2  Bi   1 a  0.5976900000  0.2985800000 -0.0955300000  1.0000000000 Dx,Dy,Dz 
Bi3  Bi   1 a  0.4098000000  0.7059700000  0.6029500000  1.0000000000 Dx,Dy,Dz 
Bi4  Bi   1 a  0.6087600000  0.3051500000  0.4019000000  1.0000000000 Dx,Dy,Dz 
Bi5  Bi   1 a -0.0908900000  0.7053900000  0.6024000000  1.0000000000 Dx,Dy,Dz 
Bi6  Bi   1 a  0.1067300000  0.3044500000  0.4014800000  1.0000000000 Dx,Dy,Dz 
Bi7  Bi   1 a  0.8887000000  0.6952700000  0.0949000000  1.0000000000 Dx,Dy,Dz 
Bi8  Bi   1 a -0.0909500000  0.2061700000  0.6028900000  1.0000000000 Dx,Dy,Dz 
Bi9  Bi   1 a  0.1067200000  0.8042400000  0.4016300000  1.0000000000 Dx,Dy,Dz 
Bi10 Bi   1 a  0.8892400000  0.1909300000  0.0960300000  1.0000000000 Dx,Dy,Dz 
Bi11 Bi   1 a  0.3883900000  0.1928000000  0.0931900000  1.0000000000 Dx,Dy,Dz 
Bi12 Bi   1 a  0.4076600000  0.2057800000  0.6031200000  1.0000000000 Dx,Dy,Dz 
Bi13 Bi   1 a  0.6058200000  0.8038400000  0.4010700000  1.0000000000 Dx,Dy,Dz 
Te1  Te   1 a  0.5763600000  0.7913000000  0.8924900000  1.0000000000 Dx,Dy,Dz 
Te2  Te   1 a  0.0826900000  0.7911700000  0.8983400000  1.0000000000 Dx,Dy,Dz 
Te3  Te   1 a  0.0835200000  0.2826600000  0.8962800000  1.0000000000 Dx,Dy,Dz 
Te4  Te   1 a  0.2355400000  0.6299000000  0.8086300000  1.0000000000 Dx,Dy,Dz 
Te5  Te   1 a  0.7714300000  0.3828100000  0.1811200000  1.0000000000 Dx,Dy,Dz 
Te6  Te   1 a  0.2160100000  0.6094100000  0.3153400000  1.0000000000 Dx,Dy,Dz 
Te7  Te   1 a  0.8074400000  0.4039000000  0.6911700000  1.0000000000 Dx,Dy,Dz 
Te8  Te   1 a  0.7167800000  0.6084700000  0.3154900000  1.0000000000 Dx,Dy,Dz 
Te9  Te   1 a  0.3046300000  0.4030300000  0.6923400000  1.0000000000 Dx,Dy,Dz 
Te10 Te   1 a  0.7247900000  0.5994000000  0.8135200000  1.0000000000 Dx,Dy,Dz 
Te11 Te   1 a  0.2753900000  0.3861200000  0.1826000000  1.0000000000 Dx,Dy,Dz 
Te12 Te   1 a  0.7171200000  0.1096300000  0.3154000000  1.0000000000 Dx,Dy,Dz 
Te13 Te   1 a  0.3046900000 -0.0921800000  0.6909700000  1.0000000000 Dx,Dy,Dz 
Te14 Te   1 a  0.7209500000  0.1127900000  0.8146400000  1.0000000000 Dx,Dy,Dz 
Te15 Te   1 a  0.2763600000  0.8890100000  0.1820500000  1.0000000000 Dx,Dy,Dz 
Te16 Te   1 a  0.1959300000  0.0996400000  0.8171700000  1.0000000000 Dx,Dy,Dz 
Te17 Te   1 a  0.7811000000  0.8871800000  0.1839200000  1.0000000000 Dx,Dy,Dz 
Te18 Te   1 a  0.2183900000  0.1100800000  0.3161400000  1.0000000000 Dx,Dy,Dz 
Te19 Te   1 a  0.7972200000  0.8986400000  0.6872300000  1.0000000000 Dx,Dy,Dz 
Te20 Te   1 a -0.0260500000 -0.0183100000 -0.0011300000  1.0000000000 Dx,Dy,Dz 
Te21 Te   1 a  0.0133500000  0.0077400000  0.5033600000  1.0000000000 Dx,Dy,Dz 
Te22 Te   1 a  0.5113800000  0.0067300000  0.5040100000  1.0000000000 Dx,Dy,Dz 
Te23 Te   1 a  0.4794700000 -0.0096100000 -0.0034000000  1.0000000000 Dx,Dy,Dz 
Te24 Te   1 a  0.5116900000  0.5084300000  0.5034500000  1.0000000000 Dx,Dy,Dz 
Te25 Te   1 a  0.4802200000  0.4914800000 -0.0058600000  1.0000000000 Dx,Dy,Dz 
Te26 Te   1 a -0.0063100000  0.4915200000 -0.0050400000  1.0000000000 Dx,Dy,Dz 
Te27 Te   1 a  0.0094700000  0.5051500000  0.5026300000  1.0000000000 Dx,Dy,Dz
