# CIF file created by FINDSYM, version 7.1.3

data_findsym-output
_audit_creation_method FINDSYM

_cell_length_a     8.7731609684
_cell_length_b     8.7731652838
_cell_length_c     20.7828006246
_cell_angle_alpha  89.9999997110
_cell_angle_beta   102.1849109150
_cell_angle_gamma  119.9999489145
_cell_volume       1343.5381716515

_symmetry_space_group_name_H-M "P 1"
_symmetry_Int_Tables_number 1
_space_group.reference_setting '001:P 1'
_space_group.transform_Pp_abc a,b,c;0,0,0

loop_
_space_group_symop_id
_space_group_symop_operation_xyz
1 x,y,z

loop_
_atom_type_symbol
Bi    
Te    

loop_
_atom_site_label
_atom_site_type_symbol
_atom_site_symmetry_multiplicity
_atom_site_Wyckoff_symbol
_atom_site_fract_x
_atom_site_fract_y
_atom_site_fract_z
_atom_site_occupancy
_atom_site_fract_symmform
Bi1  Bi   1 a  0.4005800000  0.6965100000  0.1025800000  1.0000000000 Dx,Dy,Dz 
Bi2  Bi   1 a  0.6030400000  0.3021200000 -0.0964500000  1.0000000000 Dx,Dy,Dz 
Bi3  Bi   1 a  0.4024100000  0.7028700000  0.6026200000  1.0000000000 Dx,Dy,Dz 
Bi4  Bi   1 a  0.6044900000  0.3024400000  0.4026200000  1.0000000000 Dx,Dy,Dz 
Bi5  Bi   1 a  0.8979700000  0.7022800000  0.6005500000  1.0000000000 Dx,Dy,Dz 
Bi6  Bi   1 a  0.0995400000  0.3046500000  0.3995000000  1.0000000000 Dx,Dy,Dz 
Bi7  Bi   1 a  0.8972800000  0.6964900000  0.0950600000  1.0000000000 Dx,Dy,Dz 
Bi8  Bi   1 a  0.8969700000  0.1973700000  0.5918000000  1.0000000000 Dx,Dy,Dz 
Bi9  Bi   1 a  0.8978800000  0.1958800000  0.1004500000  1.0000000000 Dx,Dy,Dz 
Bi10 Bi   1 a  0.0968800000  0.7967700000  0.8983200000  1.0000000000 Dx,Dy,Dz 
Bi11 Bi   1 a  0.4009600000  0.1977500000  0.1016200000  1.0000000000 Dx,Dy,Dz 
Bi12 Bi   1 a  0.6013000000  0.7984400000  0.8998200000  1.0000000000 Dx,Dy,Dz 
Bi13 Bi   1 a  0.6016800000  0.8047500000  0.4064200000  1.0000000000 Dx,Dy,Dz 
Te1  Te   1 a  0.0979700000  0.2998800000  0.8954700000  1.0000000000 Dx,Dy,Dz 
Te2  Te   1 a  0.0915500000  0.8035800000  0.3931200000  1.0000000000 Dx,Dy,Dz 
Te3  Te   1 a  0.4053300000  0.2014300000  0.6061200000  1.0000000000 Dx,Dy,Dz 
Te4  Te   1 a  0.2104700000  0.6206200000  0.7984400000  1.0000000000 Dx,Dy,Dz 
Te5  Te   1 a  0.7884200000  0.3885200000  0.1853700000  1.0000000000 Dx,Dy,Dz 
Te6  Te   1 a  0.2228700000  0.6026500000  0.3116000000  1.0000000000 Dx,Dy,Dz 
Te7  Te   1 a  0.7748500000  0.3901100000  0.6823800000  1.0000000000 Dx,Dy,Dz 
Te8  Te   1 a  0.7222100000  0.6179100000  0.3166200000  1.0000000000 Dx,Dy,Dz 
Te9  Te   1 a  0.2883700000  0.3910600000  0.6834500000  1.0000000000 Dx,Dy,Dz 
Te10 Te   1 a  0.7080800000  0.6017800000  0.8143100000  1.0000000000 Dx,Dy,Dz 
Te11 Te   1 a  0.2929300000  0.3908200000  0.1924000000  1.0000000000 Dx,Dy,Dz 
Te12 Te   1 a  0.7116700000  0.1114000000  0.3156500000  1.0000000000 Dx,Dy,Dz 
Te13 Te   1 a  0.2883500000  0.8794600000  0.7025500000  1.0000000000 Dx,Dy,Dz 
Te14 Te   1 a  0.7234000000  0.1100800000  0.8167700000  1.0000000000 Dx,Dy,Dz 
Te15 Te   1 a  0.2850300000  0.8876000000  0.1853500000  1.0000000000 Dx,Dy,Dz 
Te16 Te   1 a  0.2061800000  0.1085800000  0.8161800000  1.0000000000 Dx,Dy,Dz 
Te17 Te   1 a  0.7884200000  0.8888500000  0.1849300000  1.0000000000 Dx,Dy,Dz 
Te18 Te   1 a  0.2092400000  0.1056900000  0.3130000000  1.0000000000 Dx,Dy,Dz 
Te19 Te   1 a  0.7912600000 -0.0989300000  0.6841900000  1.0000000000 Dx,Dy,Dz 
Te20 Te   1 a -0.0064500000 -0.0152000000 -0.0001400000  1.0000000000 Dx,Dy,Dz 
Te21 Te   1 a  0.0097000000  0.0088500000  0.5012100000  1.0000000000 Dx,Dy,Dz 
Te22 Te   1 a  0.4915700000  0.0055400000  0.4998200000  1.0000000000 Dx,Dy,Dz 
Te23 Te   1 a  0.4991600000 -0.0056400000  0.0013400000  1.0000000000 Dx,Dy,Dz 
Te24 Te   1 a  0.5068300000  0.5157200000  0.5014500000  1.0000000000 Dx,Dy,Dz 
Te25 Te   1 a  0.4878200000  0.4897600000 -0.0020600000  1.0000000000 Dx,Dy,Dz 
Te26 Te   1 a  0.0008800000  0.4910100000 -0.0018900000  1.0000000000 Dx,Dy,Dz 
Te27 Te   1 a  0.0028900000  0.5105400000  0.4974200000  1.0000000000 Dx,Dy,Dz
