# CIF file created by FINDSYM, version 7.1.3

data_findsym-output
_audit_creation_method FINDSYM

_cell_length_a     8.7731609684
_cell_length_b     8.7731652838
_cell_length_c     20.7828006246
_cell_angle_alpha  89.9999997110
_cell_angle_beta   102.1849109150
_cell_angle_gamma  119.9999489145
_cell_volume       1343.5381716515

_symmetry_space_group_name_H-M "P 1"
_symmetry_Int_Tables_number 1
_space_group.reference_setting '001:P 1'
_space_group.transform_Pp_abc a,b,c;0,0,0

loop_
_space_group_symop_id
_space_group_symop_operation_xyz
1 x,y,z

loop_
_atom_type_symbol
Bi    
Te    

loop_
_atom_site_label
_atom_site_type_symbol
_atom_site_symmetry_multiplicity
_atom_site_Wyckoff_symbol
_atom_site_fract_x
_atom_site_fract_y
_atom_site_fract_z
_atom_site_occupancy
_atom_site_fract_symmform
Bi1  Bi   1 a  0.6156000000  0.3045100000 -0.0848400000  1.0000000000 Dx,Dy,Dz 
Bi2  Bi   1 a  0.4143800000  0.7045100000  0.6026700000  1.0000000000 Dx,Dy,Dz 
Bi3  Bi   1 a  0.6124400000  0.3052000000  0.4005400000  1.0000000000 Dx,Dy,Dz 
Bi4  Bi   1 a -0.0881000000  0.7046700000  0.6015900000  1.0000000000 Dx,Dy,Dz 
Bi5  Bi   1 a  0.1119700000  0.3047000000  0.3992200000  1.0000000000 Dx,Dy,Dz 
Bi6  Bi   1 a  0.0968800000  0.3004800000 -0.0962700000  1.0000000000 Dx,Dy,Dz 
Bi7  Bi   1 a -0.0864000000  0.2035300000  0.6018000000  1.0000000000 Dx,Dy,Dz 
Bi8  Bi   1 a  0.1135600000  0.8071100000  0.3993600000  1.0000000000 Dx,Dy,Dz 
Bi9  Bi   1 a -0.0777100000  0.2180900000  0.1028400000  1.0000000000 Dx,Dy,Dz 
Bi10 Bi   1 a  0.1128300000  0.8069000000 -0.0957900000  1.0000000000 Dx,Dy,Dz 
Bi11 Bi   1 a  0.4042700000  0.2274000000  0.0972700000  1.0000000000 Dx,Dy,Dz 
Bi12 Bi   1 a  0.6066700000  0.8130200000  0.8994500000  1.0000000000 Dx,Dy,Dz 
Bi13 Bi   1 a  0.4121900000  0.2031200000  0.6017900000  1.0000000000 Dx,Dy,Dz 
Bi14 Bi   1 a  0.6126000000  0.8044400000  0.4005400000  1.0000000000 Dx,Dy,Dz 
Te1  Te   1 a  0.2135200000  0.6033500000  0.8170700000  1.0000000000 Dx,Dy,Dz 
Te2  Te   1 a  0.7980800000  0.4109400000  0.1860400000  1.0000000000 Dx,Dy,Dz 
Te3  Te   1 a  0.2240700000  0.6109100000  0.3144000000  1.0000000000 Dx,Dy,Dz 
Te4  Te   1 a  0.8032600000  0.3989000000  0.6875900000  1.0000000000 Dx,Dy,Dz 
Te5  Te   1 a  0.7201100000  0.6073900000  0.3151100000  1.0000000000 Dx,Dy,Dz 
Te6  Te   1 a  0.3060500000  0.3981600000  0.6884000000  1.0000000000 Dx,Dy,Dz 
Te7  Te   1 a  0.7199200000  0.6055000000  0.8207800000  1.0000000000 Dx,Dy,Dz 
Te8  Te   1 a  0.3102200000  0.4142400000  0.1846500000  1.0000000000 Dx,Dy,Dz 
Te9  Te   1 a  0.7217400000  0.1078900000  0.3122000000  1.0000000000 Dx,Dy,Dz 
Te10 Te   1 a  0.3014800000  0.8973000000  0.6880800000  1.0000000000 Dx,Dy,Dz 
Te11 Te   1 a  0.7077400000  0.1097700000  0.8160300000  1.0000000000 Dx,Dy,Dz 
Te12 Te   1 a  0.8791900000  0.7027100000  0.1050800000  1.0000000000 Dx,Dy,Dz 
Te13 Te   1 a  0.2202300000  0.1099500000  0.8205300000  1.0000000000 Dx,Dy,Dz 
Te14 Te   1 a  0.8202200000  0.8991800000  0.1905100000  1.0000000000 Dx,Dy,Dz 
Te15 Te   1 a  0.2215800000  0.1080200000  0.3124300000  1.0000000000 Dx,Dy,Dz 
Te16 Te   1 a  0.8051900000  0.8982500000  0.6886100000  1.0000000000 Dx,Dy,Dz 
Te17 Te   1 a  0.0012300000 -0.0027600000  0.0046100000  1.0000000000 Dx,Dy,Dz 
Te18 Te   1 a  0.0133400000  0.0041500000  0.5007500000  1.0000000000 Dx,Dy,Dz 
Te19 Te   1 a  0.5138600000  0.0026800000  0.5015300000  1.0000000000 Dx,Dy,Dz 
Te20 Te   1 a  0.5103700000 -0.0022600000  0.0049300000  1.0000000000 Dx,Dy,Dz 
Te21 Te   1 a  0.5107200000  0.5013600000  0.4997200000  1.0000000000 Dx,Dy,Dz 
Te22 Te   1 a  0.4932800000  0.4988100000  0.0040800000  1.0000000000 Dx,Dy,Dz 
Te23 Te   1 a  0.0100100000  0.5063700000  0.0057900000  1.0000000000 Dx,Dy,Dz 
Te24 Te   1 a  0.0133200000  0.5014600000  0.5007700000  1.0000000000 Dx,Dy,Dz
