# CIF file created by FINDSYM, version 7.1.3

data_findsym-output
_audit_creation_method FINDSYM

_cell_length_a     15.1955683624
_cell_length_b     8.7731652838
_cell_length_c     20.7828006246
_cell_angle_alpha  90.0000000000
_cell_angle_beta   104.1061723083
_cell_angle_gamma  90.0000000000
_cell_volume       2687.0763433050

_symmetry_space_group_name_H-M "C 1 m 1"
_symmetry_Int_Tables_number 8
_space_group.reference_setting '008:C -2y'
_space_group.transform_Pp_abc a,b,c;0,0,0

loop_
_space_group_symop_id
_space_group_symop_operation_xyz
1 x,y,z
2 x,-y,z
3 x+1/2,y+1/2,z
4 x+1/2,-y+1/2,z

loop_
_atom_type_symbol
Bi    
Te    

loop_
_atom_site_label
_atom_site_type_symbol
_atom_site_symmetry_multiplicity
_atom_site_Wyckoff_symbol
_atom_site_fract_x
_atom_site_fract_y
_atom_site_fract_z
_atom_site_occupancy
_atom_site_fract_symmform
Bi1  Bi   2 a  0.6965200000  0.0000000000  0.0895800000  1.0000000000 Dx,0,Dz  
Bi2  Bi   2 a  0.3004150000  0.0000000000  0.3962800000  1.0000000000 Dx,0,Dz  
Bi3  Bi   2 a  0.7020400000  0.0000000000  0.6035000000  1.0000000000 Dx,0,Dz  
Bi4  Bi   4 b  0.5479425000  0.2475125000  0.3962750000  1.0000000000 Dx,Dy,Dz 
Bi5  Bi   4 b -0.0492700000  0.2486900000  0.6035000000  1.0000000000 Dx,Dy,Dz 
Bi6  Bi   4 b  0.5479250000  0.2524750000  0.8962700000  1.0000000000 Dx,Dy,Dz 
Bi7  Bi   4 b -0.0492700000  0.2513100000  0.1035000000  1.0000000000 Dx,Dy,Dz 
Bi8  Bi   2 a  0.8004150000  0.0000000000  0.8962800000  1.0000000000 Dx,0,Dz  
Bi9  Bi   2 a  0.2020400000  0.0000000000  0.1035000000  1.0000000000 Dx,0,Dz  
Bi10 Bi   2 a  0.1965300000  0.0000000000  0.5895800000  1.0000000000 Dx,0,Dz  
Te1  Te   2 a  0.3997000000  0.0000000000  0.1991300000  1.0000000000 Dx,0,Dz  
Te2  Te   2 a  0.6041050000  0.0000000000  0.8123200000  1.0000000000 Dx,0,Dz  
Te3  Te   2 a  0.3942600000  0.0000000000  0.6868500000  1.0000000000 Dx,0,Dz  
Te4  Te   2 a  0.6023100000  0.0000000000  0.3106900000  1.0000000000 Dx,0,Dz  
Te5  Te   4 b  0.6462975000  0.2520325000  0.6868550000  1.0000000000 Dx,Dy,Dz 
Te6  Te   4 b  0.8542100000  0.2519650000  0.3106550000  1.0000000000 Dx,Dy,Dz 
Te7  Te   4 b  0.6462900000  0.2479600000  0.1868600000  1.0000000000 Dx,Dy,Dz 
Te8  Te   4 b  0.8541975000  0.2480725000  0.8106750000  1.0000000000 Dx,Dy,Dz 
Te9  Te   2 a  0.8942600000  0.0000000000  0.1868600000  1.0000000000 Dx,0,Dz  
Te10 Te   2 a  0.1022500000  0.0000000000  0.8106700000  1.0000000000 Dx,0,Dz  
Te11 Te   2 a  0.8997150000  0.0000000000  0.6991400000  1.0000000000 Dx,0,Dz  
Te12 Te   2 a  0.1041100000  0.0000000000  0.3123200000  1.0000000000 Dx,0,Dz  
Te13 Te   2 a  0.0013100000  0.0000000000  0.0039400000  1.0000000000 Dx,0,Dz  
Te14 Te   2 a -0.0016250000  0.0000000000  0.5010600000  1.0000000000 Dx,0,Dz  
Te15 Te   4 b  0.2513450000  0.2529700000  0.5010600000  1.0000000000 Dx,Dy,Dz 
Te16 Te   4 b  0.2513350000  0.2470350000  0.0010600000  1.0000000000 Dx,Dy,Dz 
Te17 Te   2 a  0.4983700000  0.0000000000  0.0010700000  1.0000000000 Dx,0,Dz  
Te18 Te   2 a  0.5013150000  0.0000000000  0.5039400000  1.0000000000 Dx,0,Dz
