# CIF file created by FINDSYM, version 7.1.3

data_findsym-output
_audit_creation_method FINDSYM

_cell_length_a     8.7731609684
_cell_length_b     8.7731652838
_cell_length_c     20.7828006246
_cell_angle_alpha  89.9999997110
_cell_angle_beta   102.1849109150
_cell_angle_gamma  119.9999489145
_cell_volume       1343.5381716515

_symmetry_space_group_name_H-M "P 1"
_symmetry_Int_Tables_number 1
_space_group.reference_setting '001:P 1'
_space_group.transform_Pp_abc a,b,c;0,0,0

loop_
_space_group_symop_id
_space_group_symop_operation_xyz
1 x,y,z

loop_
_atom_type_symbol
Bi    
Te    

loop_
_atom_site_label
_atom_site_type_symbol
_atom_site_symmetry_multiplicity
_atom_site_Wyckoff_symbol
_atom_site_fract_x
_atom_site_fract_y
_atom_site_fract_z
_atom_site_occupancy
_atom_site_fract_symmform
Bi1  Bi   1 a  0.5938300000  0.2840500000 -0.0838700000  1.0000000000 Dx,Dy,Dz 
Bi2  Bi   1 a  0.3864200000  0.6936500000  0.5857600000  1.0000000000 Dx,Dy,Dz 
Bi3  Bi   1 a  0.8970900000  0.7060900000  0.5990200000  1.0000000000 Dx,Dy,Dz 
Bi4  Bi   1 a  0.1191000000  0.3246600000  0.3936900000  1.0000000000 Dx,Dy,Dz 
Bi5  Bi   1 a  0.8830400000  0.6666300000  0.0923400000  1.0000000000 Dx,Dy,Dz 
Bi6  Bi   1 a  0.0869300000  0.2779600000  0.8973600000  1.0000000000 Dx,Dy,Dz 
Bi7  Bi   1 a  0.8926200000  0.1919400000  0.6051800000  1.0000000000 Dx,Dy,Dz 
Bi8  Bi   1 a  0.0900900000  0.7816200000  0.4126300000  1.0000000000 Dx,Dy,Dz 
Bi9  Bi   1 a  0.8982300000  0.1848500000  0.1081600000  1.0000000000 Dx,Dy,Dz 
Bi10 Bi   1 a  0.0918500000  0.7875200000 -0.0978900000  1.0000000000 Dx,Dy,Dz 
Bi11 Bi   1 a  0.3878900000  0.1854500000  0.0970100000  1.0000000000 Dx,Dy,Dz 
Bi12 Bi   1 a  0.5874700000  0.7844200000 -0.0994000000  1.0000000000 Dx,Dy,Dz 
Bi13 Bi   1 a  0.3942000000  0.2026600000  0.5955000000  1.0000000000 Dx,Dy,Dz 
Bi14 Bi   1 a  0.6036000000  0.8092700000  0.3942200000  1.0000000000 Dx,Dy,Dz 
Te1  Te   1 a  0.1956900000  0.5921500000  0.8149700000  1.0000000000 Dx,Dy,Dz 
Te2  Te   1 a  0.7768600000  0.3835900000  0.1860500000  1.0000000000 Dx,Dy,Dz 
Te3  Te   1 a  0.2040200000  0.6278700000  0.3132200000  1.0000000000 Dx,Dy,Dz 
Te4  Te   1 a  0.7813300000  0.3968300000  0.6842400000  1.0000000000 Dx,Dy,Dz 
Te5  Te   1 a  0.6951100000  0.5973100000  0.3136400000  1.0000000000 Dx,Dy,Dz 
Te6  Te   1 a  0.2836900000  0.4004500000  0.6817400000  1.0000000000 Dx,Dy,Dz 
Te7  Te   1 a  0.6985900000  0.5859100000  0.8206900000  1.0000000000 Dx,Dy,Dz 
Te8  Te   1 a  0.3008700000  0.4304400000  0.1789300000  1.0000000000 Dx,Dy,Dz 
Te9  Te   1 a  0.7472000000  0.0766700000  0.2959300000  1.0000000000 Dx,Dy,Dz 
Te10 Te   1 a  0.2860700000  0.8947200000  0.6800400000  1.0000000000 Dx,Dy,Dz 
Te11 Te   1 a  0.6934500000  0.0951200000  0.8178800000  1.0000000000 Dx,Dy,Dz 
Te12 Te   1 a  0.2427400000  0.8970200000  0.1872000000  1.0000000000 Dx,Dy,Dz 
Te13 Te   1 a  0.2080700000  0.0912200000  0.8177000000  1.0000000000 Dx,Dy,Dz 
Te14 Te   1 a -0.0522600000 -0.0433700000  0.2289400000  1.0000000000 Dx,Dy,Dz 
Te15 Te   1 a  0.3351300000  0.2703400000  0.2938300000  1.0000000000 Dx,Dy,Dz 
Te16 Te   1 a  0.7725800000  0.8835300000  0.6838200000  1.0000000000 Dx,Dy,Dz 
Te17 Te   1 a -0.0148100000 -0.0120200000  0.0015400000  1.0000000000 Dx,Dy,Dz 
Te18 Te   1 a -0.0080100000  0.0084900000  0.4979100000  1.0000000000 Dx,Dy,Dz 
Te19 Te   1 a  0.4899900000  0.0064300000  0.4947000000  1.0000000000 Dx,Dy,Dz 
Te20 Te   1 a  0.4904900000 -0.0189800000  0.0086500000  1.0000000000 Dx,Dy,Dz 
Te21 Te   1 a  0.5014800000  0.5028400000  0.4952000000  1.0000000000 Dx,Dy,Dz 
Te22 Te   1 a  0.4776900000  0.4900100000  0.0012400000  1.0000000000 Dx,Dy,Dz 
Te23 Te   1 a  0.0011700000  0.4810700000  0.0114300000  1.0000000000 Dx,Dy,Dz 
Te24 Te   1 a -0.0194700000  0.4816200000  0.4908300000  1.0000000000 Dx,Dy,Dz
