# CIF file created by FINDSYM, version 7.1.3

data_findsym-output
_audit_creation_method FINDSYM

_cell_length_a     15.1955683624
_cell_length_b     8.7731652838
_cell_length_c     10.3914003123
_cell_angle_alpha  90.0000000000
_cell_angle_beta   104.1061723083
_cell_angle_gamma  90.0000000000
_cell_volume       1343.5381716525

_symmetry_space_group_name_H-M "C 1 2/m 1"
_symmetry_Int_Tables_number 12
_space_group.reference_setting '012:-C 2y'
_space_group.transform_Pp_abc a,b,c;0,0,0

loop_
_space_group_symop_id
_space_group_symop_operation_xyz
1 x,y,z
2 -x,y,-z
3 -x,-y,-z
4 x,-y,z
5 x+1/2,y+1/2,z
6 -x+1/2,y+1/2,-z
7 -x+1/2,-y+1/2,-z
8 x+1/2,-y+1/2,z

loop_
_atom_type_symbol
Bi    
Te    

loop_
_atom_site_label
_atom_site_type_symbol
_atom_site_symmetry_multiplicity
_atom_site_Wyckoff_symbol
_atom_site_fract_x
_atom_site_fract_y
_atom_site_fract_z
_atom_site_occupancy
_atom_site_fract_symmform
Bi1 Bi   4 i  0.3001700000  0.0000000000  0.8007050000  1.0000000000 Dx,0,Dz  
Bi2 Bi   8 j  0.5475550000  0.2611150000  0.8075800000  1.0000000000 Dx,Dy,Dz 
Bi3 Bi   4 i  0.8050500000  0.0000000000  0.8026200000  1.0000000000 Dx,0,Dz  
Te1 Te   4 i  0.3940800000  0.0000000000  0.3545200000  1.0000000000 Dx,0,Dz  
Te2 Te   8 j  0.6446400000  0.2497500000  0.3725950000  1.0000000000 Dx,Dy,Dz 
Te3 Te   4 i  0.8955987500  0.0000000000  0.3702300000  1.0000000000 Dx,0,Dz  
Te4 Te   4 e  0.2500000000  0.2500000000  0.0000000000  1.0000000000 0,0,0    
Te5 Te   2 b  0.0000000000  0.5000000000  0.0000000000  1.0000000000 0,0,0
