# CIF file created by FINDSYM, version 7.1.3

data_findsym-output
_audit_creation_method FINDSYM

_cell_length_a     8.7731609684
_cell_length_b     8.7731652838
_cell_length_c     20.7828006246
_cell_angle_alpha  89.9999997110
_cell_angle_beta   102.1849109150
_cell_angle_gamma  119.9999489145
_cell_volume       1343.5381716515

_symmetry_space_group_name_H-M "P 1"
_symmetry_Int_Tables_number 1
_space_group.reference_setting '001:P 1'
_space_group.transform_Pp_abc a,b,c;0,0,0

loop_
_space_group_symop_id
_space_group_symop_operation_xyz
1 x,y,z

loop_
_atom_type_symbol
Bi    
Te    

loop_
_atom_site_label
_atom_site_type_symbol
_atom_site_symmetry_multiplicity
_atom_site_Wyckoff_symbol
_atom_site_fract_x
_atom_site_fract_y
_atom_site_fract_z
_atom_site_occupancy
_atom_site_fract_symmform
Bi1  Bi   1 a  0.3997500000  0.6947200000  0.1000500000  1.0000000000 Dx,Dy,Dz 
Bi2  Bi   1 a  0.6047100000  0.3013400000 -0.0986700000  1.0000000000 Dx,Dy,Dz 
Bi3  Bi   1 a  0.4016200000  0.7021900000  0.6007300000  1.0000000000 Dx,Dy,Dz 
Bi4  Bi   1 a  0.5984600000  0.3023700000  0.4001900000  1.0000000000 Dx,Dy,Dz 
Bi5  Bi   1 a -0.0980100000  0.7048100000  0.6004900000  1.0000000000 Dx,Dy,Dz 
Bi6  Bi   1 a  0.0980900000  0.3035900000  0.4004900000  1.0000000000 Dx,Dy,Dz 
Bi7  Bi   1 a  0.8966900000  0.6954100000  0.0937000000  1.0000000000 Dx,Dy,Dz 
Bi8  Bi   1 a  0.1023000000  0.8057500000  0.4036600000  1.0000000000 Dx,Dy,Dz 
Bi9  Bi   1 a  0.8984500000  0.1955700000  0.0992100000  1.0000000000 Dx,Dy,Dz 
Bi10 Bi   1 a  0.0985600000  0.7979000000  0.8977200000  1.0000000000 Dx,Dy,Dz 
Bi11 Bi   1 a  0.3997600000  0.1953400000  0.0989000000  1.0000000000 Dx,Dy,Dz 
Bi12 Bi   1 a  0.6006900000  0.7977100000  0.8966400000  1.0000000000 Dx,Dy,Dz 
Bi13 Bi   1 a  0.6025700000  0.8037700000  0.4067100000  1.0000000000 Dx,Dy,Dz 
Te1  Te   1 a  0.1005300000  0.2997400000  0.8944100000  1.0000000000 Dx,Dy,Dz 
Te2  Te   1 a  0.8912700000  0.2014200000  0.6006800000  1.0000000000 Dx,Dy,Dz 
Te3  Te   1 a  0.3963600000  0.2010100000  0.6066800000  1.0000000000 Dx,Dy,Dz 
Te4  Te   1 a  0.2140200000  0.6225200000  0.7978100000  1.0000000000 Dx,Dy,Dz 
Te5  Te   1 a  0.7875400000  0.3867700000  0.1841100000  1.0000000000 Dx,Dy,Dz 
Te6  Te   1 a  0.2103200000  0.6140000000  0.3179900000  1.0000000000 Dx,Dy,Dz 
Te7  Te   1 a  0.7897300000  0.3877000000  0.6836100000  1.0000000000 Dx,Dy,Dz 
Te8  Te   1 a  0.7038200000  0.6103200000  0.3171000000  1.0000000000 Dx,Dy,Dz 
Te9  Te   1 a  0.3131500000  0.3984600000  0.6870800000  1.0000000000 Dx,Dy,Dz 
Te10 Te   1 a  0.7115100000  0.6018400000  0.8089900000  1.0000000000 Dx,Dy,Dz 
Te11 Te   1 a  0.2893800000  0.3886200000  0.1855700000  1.0000000000 Dx,Dy,Dz 
Te12 Te   1 a  0.7104100000  0.1105600000  0.3155700000  1.0000000000 Dx,Dy,Dz 
Te13 Te   1 a  0.2921700000  0.8819900000  0.7012600000  1.0000000000 Dx,Dy,Dz 
Te14 Te   1 a  0.7220900000  0.1093400000  0.8152200000  1.0000000000 Dx,Dy,Dz 
Te15 Te   1 a  0.2863500000  0.8868900000  0.1835700000  1.0000000000 Dx,Dy,Dz 
Te16 Te   1 a  0.2066400000  0.1100100000  0.8151700000  1.0000000000 Dx,Dy,Dz 
Te17 Te   1 a  0.7896600000  0.8859300000  0.1836700000  1.0000000000 Dx,Dy,Dz 
Te18 Te   1 a  0.2066600000  0.1072100000  0.3153800000  1.0000000000 Dx,Dy,Dz 
Te19 Te   1 a  0.7938800000 -0.0938200000  0.6848700000  1.0000000000 Dx,Dy,Dz 
Te20 Te   1 a -0.0063200000 -0.0176900000 -0.0018700000  1.0000000000 Dx,Dy,Dz 
Te21 Te   1 a  0.0032100000  0.0136300000  0.5065100000  1.0000000000 Dx,Dy,Dz 
Te22 Te   1 a  0.4871400000  0.0054100000  0.5025500000  1.0000000000 Dx,Dy,Dz 
Te23 Te   1 a  0.4999700000 -0.0061600000 -0.0030100000  1.0000000000 Dx,Dy,Dz 
Te24 Te   1 a  0.5060500000  0.5142400000  0.5017500000  1.0000000000 Dx,Dy,Dz 
Te25 Te   1 a  0.4905600000  0.4903100000 -0.0042800000  1.0000000000 Dx,Dy,Dz 
Te26 Te   1 a  0.0023700000  0.4899500000 -0.0041100000  1.0000000000 Dx,Dy,Dz 
Te27 Te   1 a -0.0021300000  0.4993500000  0.5038700000  1.0000000000 Dx,Dy,Dz
