# CIF file created by FINDSYM, version 7.1.3

data_findsym-output
_audit_creation_method FINDSYM

_cell_length_a     8.7731609684
_cell_length_b     8.7731652838
_cell_length_c     20.7828006246
_cell_angle_alpha  89.9999997110
_cell_angle_beta   102.1849109150
_cell_angle_gamma  119.9999489145
_cell_volume       1343.5381716515

_symmetry_space_group_name_H-M "P 1"
_symmetry_Int_Tables_number 1
_space_group.reference_setting '001:P 1'
_space_group.transform_Pp_abc a,b,c;0,0,0

loop_
_space_group_symop_id
_space_group_symop_operation_xyz
1 x,y,z

loop_
_atom_type_symbol
Bi    
Te    

loop_
_atom_site_label
_atom_site_type_symbol
_atom_site_symmetry_multiplicity
_atom_site_Wyckoff_symbol
_atom_site_fract_x
_atom_site_fract_y
_atom_site_fract_z
_atom_site_occupancy
_atom_site_fract_symmform
Bi1  Bi   1 a  0.3723600000  0.6836300000  0.0876500000  1.0000000000 Dx,Dy,Dz 
Bi2  Bi   1 a  0.5880400000  0.2931700000  0.8933700000  1.0000000000 Dx,Dy,Dz 
Bi3  Bi   1 a  0.4075100000  0.7052500000  0.6048900000  1.0000000000 Dx,Dy,Dz 
Bi4  Bi   1 a  0.6172700000  0.3103400000  0.4091200000  1.0000000000 Dx,Dy,Dz 
Bi5  Bi   1 a -0.0993800000  0.6991900000  0.5998500000  1.0000000000 Dx,Dy,Dz 
Bi6  Bi   1 a  0.1039400000  0.2944000000  0.3957400000  1.0000000000 Dx,Dy,Dz 
Bi7  Bi   1 a -0.0883900000  0.7135400000  0.1100600000  1.0000000000 Dx,Dy,Dz 
Bi8  Bi   1 a  0.1043700000  0.3041900000 -0.0973100000  1.0000000000 Dx,Dy,Dz 
Bi9  Bi   1 a  0.8981100000  0.2018100000  0.5979100000  1.0000000000 Dx,Dy,Dz 
Bi10 Bi   1 a  0.0977300000  0.8076600000  0.3924000000  1.0000000000 Dx,Dy,Dz 
Bi11 Bi   1 a  0.8981100000  0.1905000000  0.1051300000  1.0000000000 Dx,Dy,Dz 
Bi12 Bi   1 a  0.0988100000  0.7979300000 -0.0997500000  1.0000000000 Dx,Dy,Dz 
Bi13 Bi   1 a  0.4025500000  0.1944000000  0.1030700000  1.0000000000 Dx,Dy,Dz 
Bi14 Bi   1 a  0.6030800000  0.7994100000 -0.0992500000  1.0000000000 Dx,Dy,Dz 
Bi15 Bi   1 a  0.3979300000  0.1993700000  0.6015700000  1.0000000000 Dx,Dy,Dz 
Bi16 Bi   1 a  0.5990600000  0.8001800000  0.4014900000  1.0000000000 Dx,Dy,Dz 
Bi17 Bi   1 a  0.3113100000  0.8948600000  0.1932800000  1.0000000000 Dx,Dy,Dz 
Bi18 Bi   1 a  0.7999600000 -0.0982100000  0.2014900000  1.0000000000 Dx,Dy,Dz 
Bi19 Bi   1 a  0.1893200000  0.0925900000  0.2945500000  1.0000000000 Dx,Dy,Dz 
Te1  Te   1 a  0.2124800000  0.6066000000  0.8135200000  1.0000000000 Dx,Dy,Dz 
Te2  Te   1 a  0.7933500000  0.3972500000  0.1863700000  1.0000000000 Dx,Dy,Dz 
Te3  Te   1 a  0.2086700000  0.6035900000  0.3135000000  1.0000000000 Dx,Dy,Dz 
Te4  Te   1 a  0.7883800000  0.3947500000  0.6863500000  1.0000000000 Dx,Dy,Dz 
Te5  Te   1 a  0.7028800000  0.5976200000  0.3158500000  1.0000000000 Dx,Dy,Dz 
Te6  Te   1 a  0.2866700000  0.3948100000  0.6872500000  1.0000000000 Dx,Dy,Dz 
Te7  Te   1 a  0.7113700000  0.6064200000  0.8118100000  1.0000000000 Dx,Dy,Dz 
Te8  Te   1 a  0.2946100000  0.4026200000  0.1820900000  1.0000000000 Dx,Dy,Dz 
Te9  Te   1 a  0.7082500000  0.1088200000  0.3170100000  1.0000000000 Dx,Dy,Dz 
Te10 Te   1 a  0.2894300000  0.8963000000  0.6881500000  1.0000000000 Dx,Dy,Dz 
Te11 Te   1 a  0.7136300000  0.1057600000  0.8128500000  1.0000000000 Dx,Dy,Dz 
Te12 Te   1 a  0.2021800000  0.1018600000  0.8115300000  1.0000000000 Dx,Dy,Dz 
Te13 Te   1 a  0.7930000000  0.8978300000  0.6867000000  1.0000000000 Dx,Dy,Dz 
Te14 Te   1 a  0.0032900000  0.0022300000 -0.0003000000  1.0000000000 Dx,Dy,Dz 
Te15 Te   1 a -0.0016300000 -0.0007000000  0.4994200000  1.0000000000 Dx,Dy,Dz 
Te16 Te   1 a  0.4916900000 -0.0047600000  0.5002400000  1.0000000000 Dx,Dy,Dz 
Te17 Te   1 a  0.5056000000  0.0054200000 -0.0016700000  1.0000000000 Dx,Dy,Dz 
Te18 Te   1 a  0.4951800000  0.5001500000  0.5011000000  1.0000000000 Dx,Dy,Dz 
Te19 Te   1 a  0.5068800000  0.5018000000 -0.0039800000  1.0000000000 Dx,Dy,Dz 
Te20 Te   1 a -0.0035700000  0.5003200000 -0.0026800000  1.0000000000 Dx,Dy,Dz 
Te21 Te   1 a -0.0039900000  0.4971200000  0.4996400000  1.0000000000 Dx,Dy,Dz
