# CIF file created by FINDSYM, version 7.1.3

data_findsym-output
_audit_creation_method FINDSYM

_cell_length_a     8.7731609684
_cell_length_b     8.7731652838
_cell_length_c     20.7828006246
_cell_angle_alpha  89.9999997110
_cell_angle_beta   102.1849109150
_cell_angle_gamma  119.9999489145
_cell_volume       1343.5381716515

_symmetry_space_group_name_H-M "P 1"
_symmetry_Int_Tables_number 1
_space_group.reference_setting '001:P 1'
_space_group.transform_Pp_abc a,b,c;0,0,0

loop_
_space_group_symop_id
_space_group_symop_operation_xyz
1 x,y,z

loop_
_atom_type_symbol
Bi    
Te    

loop_
_atom_site_label
_atom_site_type_symbol
_atom_site_symmetry_multiplicity
_atom_site_Wyckoff_symbol
_atom_site_fract_x
_atom_site_fract_y
_atom_site_fract_z
_atom_site_occupancy
_atom_site_fract_symmform
Bi1  Bi   1 a  0.4015300000  0.6891200000  0.0953600000  1.0000000000 Dx,Dy,Dz 
Bi2  Bi   1 a  0.8059200000  0.4351100000  0.8417900000  1.0000000000 Dx,Dy,Dz 
Bi3  Bi   1 a  0.3995300000  0.7014300000  0.6054100000  1.0000000000 Dx,Dy,Dz 
Bi4  Bi   1 a  0.5986300000  0.2987900000  0.4044700000  1.0000000000 Dx,Dy,Dz 
Bi5  Bi   1 a  0.8987400000  0.7044100000  0.6057000000  1.0000000000 Dx,Dy,Dz 
Bi6  Bi   1 a  0.0961600000  0.2974300000  0.4033100000  1.0000000000 Dx,Dy,Dz 
Bi7  Bi   1 a  0.8998700000  0.7028900000  0.0947100000  1.0000000000 Dx,Dy,Dz 
Bi8  Bi   1 a  0.1212500000  0.3600000000  0.8920500000  1.0000000000 Dx,Dy,Dz 
Bi9  Bi   1 a  0.8996300000  0.1937800000  0.6045900000  1.0000000000 Dx,Dy,Dz 
Bi10 Bi   1 a  0.0964400000  0.7949800000  0.4022200000  1.0000000000 Dx,Dy,Dz 
Bi11 Bi   1 a  0.8914900000  0.1966600000  0.0965100000  1.0000000000 Dx,Dy,Dz 
Bi12 Bi   1 a  0.1035800000  0.8315100000  0.8997100000  1.0000000000 Dx,Dy,Dz 
Bi13 Bi   1 a  0.3756800000  0.1746900000  0.1034800000  1.0000000000 Dx,Dy,Dz 
Bi14 Bi   1 a  0.5020500000  0.7169900000 -0.0917600000  1.0000000000 Dx,Dy,Dz 
Bi15 Bi   1 a  0.3934700000  0.1978800000  0.6053600000  1.0000000000 Dx,Dy,Dz 
Bi16 Bi   1 a  0.5943600000  0.7970900000  0.4023200000  1.0000000000 Dx,Dy,Dz 
Te1  Te   1 a  0.7789000000  0.3866500000  0.1812500000  1.0000000000 Dx,Dy,Dz 
Te2  Te   1 a  0.2034700000  0.5990600000  0.3162400000  1.0000000000 Dx,Dy,Dz 
Te3  Te   1 a  0.7855600000  0.3953200000  0.6910800000  1.0000000000 Dx,Dy,Dz 
Te4  Te   1 a  0.7057000000  0.6017100000  0.3169700000  1.0000000000 Dx,Dy,Dz 
Te5  Te   1 a  0.2898400000  0.3979300000  0.6911400000  1.0000000000 Dx,Dy,Dz 
Te6  Te   1 a  0.2895400000  0.3883800000  0.1854700000  1.0000000000 Dx,Dy,Dz 
Te7  Te   1 a  0.7065900000  0.1020500000  0.3171400000  1.0000000000 Dx,Dy,Dz 
Te8  Te   1 a  0.2890400000  0.8943600000  0.6917900000  1.0000000000 Dx,Dy,Dz 
Te9  Te   1 a  0.2941600000  0.8803000000  0.1865100000  1.0000000000 Dx,Dy,Dz 
Te10 Te   1 a  0.1981200000  0.1199800000  0.8132800000  1.0000000000 Dx,Dy,Dz 
Te11 Te   1 a  0.7872200000  0.8899000000  0.1829800000  1.0000000000 Dx,Dy,Dz 
Te12 Te   1 a  0.2054600000  0.1005400000  0.3173900000  1.0000000000 Dx,Dy,Dz 
Te13 Te   1 a  0.7863700000  0.8931600000  0.6919300000  1.0000000000 Dx,Dy,Dz 
Te14 Te   1 a -0.0189100000 -0.0101900000 -0.0070500000  1.0000000000 Dx,Dy,Dz 
Te15 Te   1 a -0.0040400000 -0.0018100000  0.5063500000  1.0000000000 Dx,Dy,Dz 
Te16 Te   1 a  0.4975200000  0.0000400000  0.5044100000  1.0000000000 Dx,Dy,Dz 
Te17 Te   1 a  0.5063600000 -0.0128500000 -0.0041700000  1.0000000000 Dx,Dy,Dz 
Te18 Te   1 a  0.4976400000  0.4970400000  0.5044800000  1.0000000000 Dx,Dy,Dz 
Te19 Te   1 a  0.5138800000  0.4822600000  0.0039300000  1.0000000000 Dx,Dy,Dz 
Te20 Te   1 a -0.0131300000  0.4932400000 -0.0030500000  1.0000000000 Dx,Dy,Dz 
Te21 Te   1 a -0.0059600000  0.4959900000  0.5041500000  1.0000000000 Dx,Dy,Dz
