# CIF file created by FINDSYM, version 7.1.3

data_findsym-output
_audit_creation_method FINDSYM

_cell_length_a     8.7731631261
_cell_length_b     8.7731631261
_cell_length_c     60.4683335566
_cell_angle_alpha  90.0000000000
_cell_angle_beta   90.0000000000
_cell_angle_gamma  120.0000000000
_cell_volume       4030.6124401127

_symmetry_space_group_name_H-M "R 3 m (hexagonal axes)"
_symmetry_Int_Tables_number 160
_space_group.reference_setting '160:R 3 -2"'
_space_group.transform_Pp_abc a,b,c;0,0,0

loop_
_space_group_symop_id
_space_group_symop_operation_xyz
1 x,y,z
2 -y,x-y,z
3 -x+y,-x,z
4 -y,-x,z
5 x,x-y,z
6 -x+y,y,z
7 x+1/3,y+2/3,z+2/3
8 -y+1/3,x-y+2/3,z+2/3
9 -x+y+1/3,-x+2/3,z+2/3
10 -y+1/3,-x+2/3,z+2/3
11 x+1/3,x-y+2/3,z+2/3
12 -x+y+1/3,y+2/3,z+2/3
13 x+2/3,y+1/3,z+1/3
14 -y+2/3,x-y+1/3,z+1/3
15 -x+y+2/3,-x+1/3,z+1/3
16 -y+2/3,-x+1/3,z+1/3
17 x+2/3,x-y+1/3,z+1/3
18 -x+y+2/3,y+1/3,z+1/3

loop_
_atom_type_symbol
Bi    
Te    

loop_
_atom_site_label
_atom_site_type_symbol
_atom_site_symmetry_multiplicity
_atom_site_Wyckoff_symbol
_atom_site_fract_x
_atom_site_fract_y
_atom_site_fract_z
_atom_site_occupancy
_atom_site_fract_symmform
Bi1  Bi   9 b  0.4970866667  0.5029133333  0.0488332917  1.0000000000 Dx,-Dx,Dz 
Bi2  Bi   9 b  0.8322300000  0.1677700000  0.1166499583  1.0000000000 Dx,-Dx,Dz 
Bi3  Bi   9 b  0.8327066667  0.1672933333  0.2160832917  1.0000000000 Dx,-Dx,Dz 
Bi4  Bi   9 b  0.1683200000  0.8316800000  0.2843199583  1.0000000000 Dx,-Dx,Dz 
Bi5  Bi   3 a  0.0000000000  0.0000000000  0.0508699583  1.0000000000 0,0,Dz    
Bi6  Bi   3 a  0.0000000000  0.0000000000  0.4507199583  1.0000000000 0,0,Dz    
Bi7  Bi   3 a  0.0000000000  0.0000000000  0.5496699583  1.0000000000 0,0,Dz    
Bi8  Bi   3 a  0.0000000000  0.0000000000 -0.0509900417  1.0000000000 0,0,Dz    
Bi9  Bi   3 a  0.0000000000  0.0000000000  0.3507199583  1.0000000000 0,0,Dz    
Bi10 Bi   3 a  0.0000000000  0.0000000000  0.6486799583  1.0000000000 0,0,Dz    
Bi11 Bi   3 a  0.0000000000  0.0000000000  0.8510999583  1.0000000000 0,0,Dz    
Te1  Te   9 b  0.5012166667  0.4987833333  0.1462632917  1.0000000000 Dx,-Dx,Dz 
Te2  Te   9 b  0.8328411111  0.1671588889  0.0213388472  1.0000000000 Dx,-Dx,Dz 
Te3  Te   9 b  0.8332300000  0.1667700000  0.3123299583  1.0000000000 Dx,-Dx,Dz 
Te4  Te   9 b  0.1662833333  0.8337166667  0.1878466250  1.0000000000 Dx,-Dx,Dz 
Te5  Te   3 a  0.0000000000  0.0000000000  0.1455599583  1.0000000000 0,0,Dz    
Te6  Te   9 b  0.1670400000  0.8329600000  0.0838499583  1.0000000000 Dx,-Dx,Dz 
Te7  Te   9 b  0.4999233333  0.5000766667  0.2501966250  1.0000000000 Dx,-Dx,Dz 
Te8  Te   3 a  0.0000000000  0.0000000000  0.7508199583  1.0000000000 0,0,Dz    
Te9  Te   3 a  0.0000000000  0.0000000000  0.2496999583  1.0000000000 0,0,Dz
