# CIF file created by FINDSYM, version 7.1.3

data_findsym-output
_audit_creation_method FINDSYM

_cell_length_a     8.7731609682
_cell_length_b     8.7731652838
_cell_length_c     20.7828006240
_cell_angle_alpha  89.9999997110
_cell_angle_beta   102.1849109111
_cell_angle_gamma  119.9999489149
_cell_volume       1343.5381716127

_symmetry_space_group_name_H-M "P 1"
_symmetry_Int_Tables_number 1
_space_group.reference_setting '001:P 1'
_space_group.transform_Pp_abc a,b,c;0,0,0

loop_
_space_group_symop_id
_space_group_symop_operation_xyz
1 x,y,z

loop_
_atom_type_symbol
Bi    
Te    

loop_
_atom_site_label
_atom_site_type_symbol
_atom_site_symmetry_multiplicity
_atom_site_Wyckoff_symbol
_atom_site_fract_x
_atom_site_fract_y
_atom_site_fract_z
_atom_site_occupancy
_atom_site_fract_symmform
Bi1  Bi   1 a  0.6219900000  0.2486900000 -0.0573100000  1.0000000000 Dx,Dy,Dz 
Bi2  Bi   1 a  0.3789200000  0.7581300000  0.5909800000  1.0000000000 Dx,Dy,Dz 
Bi3  Bi   1 a  0.5764700000  0.3565000000  0.3903400000  1.0000000000 Dx,Dy,Dz 
Bi4  Bi   1 a  0.8787800000  0.7574700000  0.5911200000  1.0000000000 Dx,Dy,Dz 
Bi5  Bi   1 a  0.0780100000  0.3582600000  0.3886900000  1.0000000000 Dx,Dy,Dz 
Bi6  Bi   1 a  0.0872300000  0.3470600000  0.8960700000  1.0000000000 Dx,Dy,Dz 
Bi7  Bi   1 a  0.8790300000  0.2596700000  0.5910100000  1.0000000000 Dx,Dy,Dz 
Bi8  Bi   1 a  0.0808600000  0.8608700000  0.3905400000  1.0000000000 Dx,Dy,Dz 
Bi9  Bi   1 a -0.0329400000 -0.0761700000  0.0413400000  1.0000000000 Dx,Dy,Dz 
Bi10 Bi   1 a  0.1232500000  0.8449900000  0.8991300000  1.0000000000 Dx,Dy,Dz 
Bi11 Bi   1 a  0.5214900000  0.3412700000  0.1538400000  1.0000000000 Dx,Dy,Dz 
Bi12 Bi   1 a  0.5824700000  0.7322200000 -0.0623300000  1.0000000000 Dx,Dy,Dz 
Bi13 Bi   1 a  0.3779200000  0.2570500000  0.5917400000  1.0000000000 Dx,Dy,Dz 
Bi14 Bi   1 a  0.5750400000  0.8581800000  0.3914400000  1.0000000000 Dx,Dy,Dz 
Te1  Te   1 a  0.1693400000  0.6324200000  0.8062700000  1.0000000000 Dx,Dy,Dz 
Te2  Te   1 a -0.0918000000  0.2038800000  0.1069300000  1.0000000000 Dx,Dy,Dz 
Te3  Te   1 a  0.1831900000  0.6633000000  0.3037600000  1.0000000000 Dx,Dy,Dz 
Te4  Te   1 a  0.7638100000  0.4505200000  0.6770400000  1.0000000000 Dx,Dy,Dz 
Te5  Te   1 a  0.6864300000  0.6611600000  0.3054700000  1.0000000000 Dx,Dy,Dz 
Te6  Te   1 a  0.2699500000  0.4554600000  0.6763900000  1.0000000000 Dx,Dy,Dz 
Te7  Te   1 a  0.5631200000  0.4292200000  0.8278900000  1.0000000000 Dx,Dy,Dz 
Te8  Te   1 a  0.2804900000  0.4713900000  0.1757100000  1.0000000000 Dx,Dy,Dz 
Te9  Te   1 a  0.6884400000  0.1665200000  0.3036800000  1.0000000000 Dx,Dy,Dz 
Te10 Te   1 a  0.2704900000 -0.0468300000  0.6774600000  1.0000000000 Dx,Dy,Dz 
Te11 Te   1 a  0.7100200000  0.0303400000  0.8505800000  1.0000000000 Dx,Dy,Dz 
Te12 Te   1 a  0.6126400000  0.8725800000  0.1610000000  1.0000000000 Dx,Dy,Dz 
Te13 Te   1 a  0.1945000000  0.1670400000  0.8042100000  1.0000000000 Dx,Dy,Dz 
Te14 Te   1 a  0.8615500000  0.7449000000  0.1565700000  1.0000000000 Dx,Dy,Dz 
Te15 Te   1 a  0.1859500000  0.1602400000  0.3034800000  1.0000000000 Dx,Dy,Dz 
Te16 Te   1 a  0.7695500000 -0.0467900000  0.6768800000  1.0000000000 Dx,Dy,Dz 
Te17 Te   1 a  0.2975300000 -0.0485300000  0.1647500000  1.0000000000 Dx,Dy,Dz 
Te18 Te   1 a -0.0278400000  0.0558000000  0.4902000000  1.0000000000 Dx,Dy,Dz 
Te19 Te   1 a  0.4774800000  0.0577400000  0.4903600000  1.0000000000 Dx,Dy,Dz 
Te20 Te   1 a  0.4349900000  0.8932600000  0.0147300000  1.0000000000 Dx,Dy,Dz 
Te21 Te   1 a  0.4789500000  0.5604200000  0.4898800000  1.0000000000 Dx,Dy,Dz 
Te22 Te   1 a  0.4004400000  0.3557700000  0.0109900000  1.0000000000 Dx,Dy,Dz 
Te23 Te   1 a -0.0086500000  0.5649300000 -0.0021400000  1.0000000000 Dx,Dy,Dz 
Te24 Te   1 a -0.0220500000  0.5573400000  0.4913100000  1.0000000000 Dx,Dy,Dz
