# CIF file created by FINDSYM, version 7.1.3

data_findsym-output
_audit_creation_method FINDSYM

_cell_length_a     15.1955758369
_cell_length_b     8.7731609684
_cell_length_c     20.7828083038
_cell_angle_alpha  90.0000000000
_cell_angle_beta   104.1062565540
_cell_angle_gamma  90.0000000000
_cell_volume       2687.0763433039

_symmetry_space_group_name_H-M "C 1 2 1"
_symmetry_Int_Tables_number 5
_space_group.reference_setting '005:C 2y'
_space_group.transform_Pp_abc a,b,c;0,0,0

loop_
_space_group_symop_id
_space_group_symop_operation_xyz
1 x,y,z
2 -x,y,-z
3 x+1/2,y+1/2,z
4 -x+1/2,y+1/2,-z

loop_
_atom_type_symbol
Bi    
Te    

loop_
_atom_site_label
_atom_site_type_symbol
_atom_site_symmetry_multiplicity
_atom_site_Wyckoff_symbol
_atom_site_fract_x
_atom_site_fract_y
_atom_site_fract_z
_atom_site_occupancy
_atom_site_fract_symmform
Bi1  Bi   4 c -0.0325450000  0.2584450000  0.6021800000  1.0000000000 Dx,Dy,Dz 
Bi2  Bi   4 c  0.5544700000  0.2560000000  0.3997800000  1.0000000000 Dx,Dy,Dz 
Bi3  Bi   4 c  0.2000100000  0.0008800000  0.1003500000  1.0000000000 Dx,Dy,Dz 
Bi4  Bi   4 c  0.7003625000  0.0027575000  0.1006450000  1.0000000000 Dx,Dy,Dz 
Bi5  Bi   4 c -0.0498275000  0.2508125000  0.1003550000  1.0000000000 Dx,Dy,Dz 
Bi6  Bi   4 c  0.5497050000  0.2510550000  0.8984250000  1.0000000000 Dx,Dy,Dz 
Bi7  Bi   4 c  0.7003400000  0.4878100000  0.5964500000  1.0000000000 Dx,Dy,Dz 
Bi8  Bi   4 c  0.1923650000  0.4760850000  0.6003100000  1.0000000000 Dx,Dy,Dz 
Te1  Te   4 c  0.6437000000  0.2457200000  0.6816700000  1.0000000000 Dx,Dy,Dz 
Te2  Te   4 c  0.1047150000  0.0035450000  0.8132700000  1.0000000000 Dx,Dy,Dz 
Te3  Te   4 c  0.1052750000  0.4993750000  0.8136000000  1.0000000000 Dx,Dy,Dz 
Te4  Te   4 c  0.8546950000  0.2516650000  0.8135700000  1.0000000000 Dx,Dy,Dz 
Te5  Te   4 c  0.6465900000  0.2519500000  0.1868400000  1.0000000000 Dx,Dy,Dz 
Te6  Te   4 c  0.1077500000  0.0077800000  0.3181500000  1.0000000000 Dx,Dy,Dz 
Te7  Te   4 c  0.1038900000  0.4989700000  0.3166200000  1.0000000000 Dx,Dy,Dz 
Te8  Te   4 c  0.2448250000  0.2498050000  0.4930700000  1.0000000000 Dx,Dy,Dz 
Te9  Te   2 a  0.0000000000  0.5036150000  0.0000000000  1.0000000000 0,Dy,0   
Te10 Te   2 a  0.0000000000 -0.0002100000  0.0000000000  1.0000000000 0,Dy,0   
Te11 Te   4 c  0.2506900000  0.2517600000  0.0004900000  1.0000000000 Dx,Dy,Dz 
Te12 Te   2 b  0.0000000000  0.5034950000  0.5000000000  1.0000000000 0,Dy,0   
Te13 Te   2 b  0.0000000000  0.0042800000  0.5000000000  1.0000000000 0,Dy,0   
