# CIF file created by FINDSYM, version 7.1.3

data_findsym-output
_audit_creation_method FINDSYM

_cell_length_a     8.7731609684
_cell_length_b     8.7731652838
_cell_length_c     20.7828006246
_cell_angle_alpha  89.9999997110
_cell_angle_beta   102.1849109150
_cell_angle_gamma  119.9999489145
_cell_volume       1343.5381716515

_symmetry_space_group_name_H-M "P 1"
_symmetry_Int_Tables_number 1
_space_group.reference_setting '001:P 1'
_space_group.transform_Pp_abc a,b,c;0,0,0

loop_
_space_group_symop_id
_space_group_symop_operation_xyz
1 x,y,z

loop_
_atom_type_symbol
Bi    
Te    

loop_
_atom_site_label
_atom_site_type_symbol
_atom_site_symmetry_multiplicity
_atom_site_Wyckoff_symbol
_atom_site_fract_x
_atom_site_fract_y
_atom_site_fract_z
_atom_site_occupancy
_atom_site_fract_symmform
Bi1  Bi   1 a  0.3979400000  0.6910400000  0.1009100000  1.0000000000 Dx,Dy,Dz 
Bi2  Bi   1 a  0.6025200000  0.2968000000 -0.0973700000  1.0000000000 Dx,Dy,Dz 
Bi3  Bi   1 a  0.4031600000  0.7071000000  0.6023400000  1.0000000000 Dx,Dy,Dz 
Bi4  Bi   1 a  0.6004200000  0.3049200000  0.4009400000  1.0000000000 Dx,Dy,Dz 
Bi5  Bi   1 a -0.0975000000  0.7071000000  0.6012200000  1.0000000000 Dx,Dy,Dz 
Bi6  Bi   1 a  0.0988700000  0.3053300000  0.4000200000  1.0000000000 Dx,Dy,Dz 
Bi7  Bi   1 a  0.8945600000  0.6938700000  0.0923300000  1.0000000000 Dx,Dy,Dz 
Bi8  Bi   1 a -0.0972800000  0.2072100000  0.6009600000  1.0000000000 Dx,Dy,Dz 
Bi9  Bi   1 a  0.0990000000  0.8037900000  0.3996600000  1.0000000000 Dx,Dy,Dz 
Bi10 Bi   1 a  0.8975100000  0.1899500000  0.0931400000  1.0000000000 Dx,Dy,Dz 
Bi11 Bi   1 a  0.6027800000  0.7974000000 -0.0918400000  1.0000000000 Dx,Dy,Dz 
Bi12 Bi   1 a  0.4049100000  0.2077900000  0.6022800000  1.0000000000 Dx,Dy,Dz 
Bi13 Bi   1 a  0.6006900000  0.8049100000  0.4003800000  1.0000000000 Dx,Dy,Dz 
Te1  Te   1 a  0.0919000000  0.2808400000  0.8940200000  1.0000000000 Dx,Dy,Dz 
Te2  Te   1 a  0.0946900000  0.7813000000  0.8922800000  1.0000000000 Dx,Dy,Dz 
Te3  Te   1 a  0.4117200000  0.1943300000  0.1072400000  1.0000000000 Dx,Dy,Dz 
Te4  Te   1 a  0.2187200000  0.6272100000  0.8109700000  1.0000000000 Dx,Dy,Dz 
Te5  Te   1 a  0.7768600000  0.3749800000  0.1815200000  1.0000000000 Dx,Dy,Dz 
Te6  Te   1 a  0.2051000000  0.6094000000  0.3104600000  1.0000000000 Dx,Dy,Dz 
Te7  Te   1 a  0.7937400000  0.4014800000  0.6867800000  1.0000000000 Dx,Dy,Dz 
Te8  Te   1 a  0.7082500000  0.6089500000  0.3142400000  1.0000000000 Dx,Dy,Dz 
Te9  Te   1 a  0.2965100000  0.4089200000  0.6914500000  1.0000000000 Dx,Dy,Dz 
Te10 Te   1 a  0.7214900000  0.6028200000  0.8162700000  1.0000000000 Dx,Dy,Dz 
Te11 Te   1 a  0.2702000000  0.3987400000  0.1888900000  1.0000000000 Dx,Dy,Dz 
Te12 Te   1 a  0.7095200000  0.1085200000  0.3148800000  1.0000000000 Dx,Dy,Dz 
Te13 Te   1 a  0.2962600000 -0.0913000000  0.6910500000  1.0000000000 Dx,Dy,Dz 
Te14 Te   1 a  0.7185600000  0.0992700000  0.8173500000  1.0000000000 Dx,Dy,Dz 
Te15 Te   1 a  0.2866900000  0.8899200000  0.1845800000  1.0000000000 Dx,Dy,Dz 
Te16 Te   1 a  0.2128900000  0.1255500000  0.8101000000  1.0000000000 Dx,Dy,Dz 
Te17 Te   1 a  0.7885300000  0.8829300000  0.1821400000  1.0000000000 Dx,Dy,Dz 
Te18 Te   1 a  0.2097100000  0.1108100000  0.3150200000  1.0000000000 Dx,Dy,Dz 
Te19 Te   1 a  0.7924300000 -0.0990500000  0.6865800000  1.0000000000 Dx,Dy,Dz 
Te20 Te   1 a  0.0051900000 -0.0150800000 -0.0001300000  1.0000000000 Dx,Dy,Dz 
Te21 Te   1 a  0.0005600000  0.0074000000  0.5002400000  1.0000000000 Dx,Dy,Dz 
Te22 Te   1 a  0.5013600000  0.0088400000  0.5022300000  1.0000000000 Dx,Dy,Dz 
Te23 Te   1 a  0.4900600000 -0.0140100000 -0.0032000000  1.0000000000 Dx,Dy,Dz 
Te24 Te   1 a  0.5015900000  0.5089300000  0.5021100000  1.0000000000 Dx,Dy,Dz 
Te25 Te   1 a  0.4889200000  0.4808700000  0.0005800000  1.0000000000 Dx,Dy,Dz 
Te26 Te   1 a -0.0015200000  0.4824700000 -0.0040700000  1.0000000000 Dx,Dy,Dz 
Te27 Te   1 a  0.0024500000  0.5077500000  0.5013700000  1.0000000000 Dx,Dy,Dz
