# CIF file created by FINDSYM, version 7.1.3

data_findsym-output
_audit_creation_method FINDSYM

_cell_length_a     8.7731609684
_cell_length_b     8.7731652838
_cell_length_c     20.7828006246
_cell_angle_alpha  89.9999997110
_cell_angle_beta   102.1849109150
_cell_angle_gamma  119.9999489145
_cell_volume       1343.5381716515

_symmetry_space_group_name_H-M "P 1"
_symmetry_Int_Tables_number 1
_space_group.reference_setting '001:P 1'
_space_group.transform_Pp_abc a,b,c;0,0,0

loop_
_space_group_symop_id
_space_group_symop_operation_xyz
1 x,y,z

loop_
_atom_type_symbol
Bi    
Te    

loop_
_atom_site_label
_atom_site_type_symbol
_atom_site_symmetry_multiplicity
_atom_site_Wyckoff_symbol
_atom_site_fract_x
_atom_site_fract_y
_atom_site_fract_z
_atom_site_occupancy
_atom_site_fract_symmform
Bi1  Bi   1 a  0.3983500000  0.6987500000  0.0971100000  1.0000000000 Dx,Dy,Dz 
Bi2  Bi   1 a  0.5985100000  0.2975300000 -0.0995800000  1.0000000000 Dx,Dy,Dz 
Bi3  Bi   1 a  0.4051900000  0.7012500000  0.6028500000  1.0000000000 Dx,Dy,Dz 
Bi4  Bi   1 a  0.6021300000  0.3019900000  0.4036200000  1.0000000000 Dx,Dy,Dz 
Bi5  Bi   1 a -0.0966400000  0.6999700000  0.5998700000  1.0000000000 Dx,Dy,Dz 
Bi6  Bi   1 a  0.1006000000  0.2990700000  0.3988600000  1.0000000000 Dx,Dy,Dz 
Bi7  Bi   1 a  0.8988200000  0.7009500000  0.1018800000  1.0000000000 Dx,Dy,Dz 
Bi8  Bi   1 a  0.0978700000  0.3009000000 -0.0998400000  1.0000000000 Dx,Dy,Dz 
Bi9  Bi   1 a -0.0952300000  0.2030800000  0.6007000000  1.0000000000 Dx,Dy,Dz 
Bi10 Bi   1 a  0.0999300000  0.8007600000  0.3984700000  1.0000000000 Dx,Dy,Dz 
Bi11 Bi   1 a  0.8950100000  0.1955200000  0.0964900000  1.0000000000 Dx,Dy,Dz 
Bi12 Bi   1 a  0.6000600000  0.8020700000 -0.0953200000  1.0000000000 Dx,Dy,Dz 
Bi13 Bi   1 a  0.3983200000  0.1993100000  0.5965600000  1.0000000000 Dx,Dy,Dz 
Te1  Te   1 a  0.0914300000  0.7977000000  0.8971000000  1.0000000000 Dx,Dy,Dz 
Te2  Te   1 a  0.4052200000  0.2031200000  0.1045700000  1.0000000000 Dx,Dy,Dz 
Te3  Te   1 a  0.5940200000  0.7971000000  0.3961600000  1.0000000000 Dx,Dy,Dz 
Te4  Te   1 a  0.2112100000  0.5907000000  0.8102300000  1.0000000000 Dx,Dy,Dz 
Te5  Te   1 a  0.8206600000  0.4143400000  0.2018500000  1.0000000000 Dx,Dy,Dz 
Te6  Te   1 a  0.1741500000  0.5866800000  0.2977200000  1.0000000000 Dx,Dy,Dz 
Te7  Te   1 a  0.7981900000  0.3990300000  0.6856300000  1.0000000000 Dx,Dy,Dz 
Te8  Te   1 a  0.7067000000  0.6102800000  0.3155400000  1.0000000000 Dx,Dy,Dz 
Te9  Te   1 a  0.3000900000  0.3986300000  0.6917300000  1.0000000000 Dx,Dy,Dz 
Te10 Te   1 a  0.7112500000  0.6070400000  0.8155700000  1.0000000000 Dx,Dy,Dz 
Te11 Te   1 a  0.2877100000  0.3882500000  0.1825800000  1.0000000000 Dx,Dy,Dz 
Te12 Te   1 a  0.7067100000  0.0938000000  0.3172400000  1.0000000000 Dx,Dy,Dz 
Te13 Te   1 a  0.2968100000  0.8999600000  0.6851900000  1.0000000000 Dx,Dy,Dz 
Te14 Te   1 a  0.7049400000  0.1012600000  0.8154500000  1.0000000000 Dx,Dy,Dz 
Te15 Te   1 a  0.2941300000 -0.0932300000  0.1835400000  1.0000000000 Dx,Dy,Dz 
Te16 Te   1 a  0.2001600000  0.0918900000  0.8155100000  1.0000000000 Dx,Dy,Dz 
Te17 Te   1 a  0.7878200000  0.8978400000  0.1843800000  1.0000000000 Dx,Dy,Dz 
Te18 Te   1 a  0.2129200000  0.1061200000  0.3145800000  1.0000000000 Dx,Dy,Dz 
Te19 Te   1 a  0.7959100000  0.8981800000  0.6860500000  1.0000000000 Dx,Dy,Dz 
Te20 Te   1 a -0.0160700000 -0.0048500000  0.0006000000  1.0000000000 Dx,Dy,Dz 
Te21 Te   1 a  0.0171500000  0.0092600000  0.5001600000  1.0000000000 Dx,Dy,Dz 
Te22 Te   1 a  0.5078100000 -0.0018900000  0.4996000000  1.0000000000 Dx,Dy,Dz 
Te23 Te   1 a  0.4838200000 -0.0016300000 -0.0006700000  1.0000000000 Dx,Dy,Dz 
Te24 Te   1 a  0.5072300000  0.5099000000  0.4979600000  1.0000000000 Dx,Dy,Dz 
Te25 Te   1 a  0.4944600000  0.4916200000  0.0029200000  1.0000000000 Dx,Dy,Dz 
Te26 Te   1 a -0.0031700000  0.5051300000 -0.0028400000  1.0000000000 Dx,Dy,Dz 
Te27 Te   1 a  0.0057600000  0.5025900000  0.4998900000  1.0000000000 Dx,Dy,Dz
