# CIF file created by FINDSYM, version 7.1.3

data_findsym-output
_audit_creation_method FINDSYM

_cell_length_a     15.1955758369
_cell_length_b     8.7731609684
_cell_length_c     20.7828083038
_cell_angle_alpha  90.0000000000
_cell_angle_beta   104.1062565540
_cell_angle_gamma  90.0000000000
_cell_volume       2687.0763433039

_symmetry_space_group_name_H-M "C 1 m 1"
_symmetry_Int_Tables_number 8
_space_group.reference_setting '008:C -2y'
_space_group.transform_Pp_abc a,b,c;0,0,0

loop_
_space_group_symop_id
_space_group_symop_operation_xyz
1 x,y,z
2 x,-y,z
3 x+1/2,y+1/2,z
4 x+1/2,-y+1/2,z

loop_
_atom_type_symbol
Bi    
Te    

loop_
_atom_site_label
_atom_site_type_symbol
_atom_site_symmetry_multiplicity
_atom_site_Wyckoff_symbol
_atom_site_fract_x
_atom_site_fract_y
_atom_site_fract_z
_atom_site_occupancy
_atom_site_fract_symmform
Bi1  Bi   2 a  0.6989900000  0.0000000000  0.1018700000  1.0000000000 Dx,0,Dz  
Bi2  Bi   2 a  0.3037200000  0.0000000000 -0.0944200000  1.0000000000 Dx,0,Dz  
Bi3  Bi   4 b  0.4498450000  0.2514050000  0.5997300000  1.0000000000 Dx,Dy,Dz 
Bi4  Bi   4 b  0.0503000000  0.2501500000  0.4000000000  1.0000000000 Dx,Dy,Dz 
Bi5  Bi   2 a  0.1990300000  0.0000000000  0.0998500000  1.0000000000 Dx,0,Dz  
Bi6  Bi   2 a  0.8006800000  0.0000000000  0.8992400000  1.0000000000 Dx,0,Dz  
Bi7  Bi   2 a  0.7030300000  0.0000000000  0.6010300000  1.0000000000 Dx,0,Dz  
Bi8  Bi   2 a  0.3026500000  0.0000000000  0.3993600000  1.0000000000 Dx,0,Dz  
Bi9  Bi   4 b  0.4462350000  0.2518350000  0.0949200000  1.0000000000 Dx,Dy,Dz 
Bi10 Bi   2 a  0.8026500000  0.0000000000  0.4076300000  1.0000000000 Dx,0,Dz  
Te1  Te   4 b  0.0476650000  0.2485750000  0.8932700000  1.0000000000 Dx,Dy,Dz 
Te2  Te   2 a  0.2028700000  0.0000000000  0.6098800000  1.0000000000 Dx,0,Dz  
Te3  Te   2 a  0.6092000000  0.0000000000  0.7895600000  1.0000000000 Dx,0,Dz  
Te4  Te   2 a  0.3910300000  0.0000000000  0.1839300000  1.0000000000 Dx,0,Dz  
Te5  Te   4 b  0.3569400000  0.2505200000  0.3152500000  1.0000000000 Dx,Dy,Dz 
Te6  Te   4 b  0.1479650000  0.2585250000  0.6967100000  1.0000000000 Dx,Dy,Dz 
Te7  Te   2 a  0.1000600000  0.0000000000  0.8161900000  1.0000000000 Dx,0,Dz  
Te8  Te   2 a  0.8922000000  0.0000000000  0.1841500000  1.0000000000 Dx,0,Dz  
Te9  Te   2 a  0.6089100000  0.0000000000  0.3165000000  1.0000000000 Dx,0,Dz  
Te10 Te   2 a  0.3898300000  0.0000000000  0.6848800000  1.0000000000 Dx,0,Dz  
Te11 Te   4 b  0.3603250000  0.2494450000  0.8156500000  1.0000000000 Dx,Dy,Dz 
Te12 Te   4 b  0.1403250000  0.2497650000  0.1845700000  1.0000000000 Dx,Dy,Dz 
Te13 Te   2 a  0.1063100000  0.0000000000  0.3145300000  1.0000000000 Dx,0,Dz  
Te14 Te   2 a  0.8959700000  0.0000000000  0.6860500000  1.0000000000 Dx,0,Dz  
Te15 Te   2 a -0.0077900000  0.0000000000  0.0005600000  1.0000000000 Dx,0,Dz  
Te16 Te   4 b  0.7534750000  0.2472550000  0.5026900000  1.0000000000 Dx,Dy,Dz 
Te17 Te   2 a  0.4995400000  0.0000000000 -0.0053900000  1.0000000000 Dx,0,Dz  
Te18 Te   2 a  0.0084100000  0.0000000000  0.5048800000  1.0000000000 Dx,0,Dz  
Te19 Te   4 b  0.7422900000  0.2495700000 -0.0037800000  1.0000000000 Dx,Dy,Dz 
Te20 Te   2 a  0.5019700000  0.0000000000  0.5017400000  1.0000000000 Dx,0,Dz
