# CIF file created by FINDSYM, version 7.1.3

data_findsym-output
_audit_creation_method FINDSYM

_cell_length_a     15.1955683624
_cell_length_b     8.7731652838
_cell_length_c     20.7828006246
_cell_angle_alpha  90.0000000000
_cell_angle_beta   104.1061723083
_cell_angle_gamma  90.0000000000
_cell_volume       2687.0763433050

_symmetry_space_group_name_H-M "C 1 2/m 1"
_symmetry_Int_Tables_number 12
_space_group.reference_setting '012:-C 2y'
_space_group.transform_Pp_abc a,b,c;0,0,0

loop_
_space_group_symop_id
_space_group_symop_operation_xyz
1 x,y,z
2 -x,y,-z
3 -x,-y,-z
4 x,-y,z
5 x+1/2,y+1/2,z
6 -x+1/2,y+1/2,-z
7 -x+1/2,-y+1/2,-z
8 x+1/2,-y+1/2,z

loop_
_atom_type_symbol
Bi    
Te    

loop_
_atom_site_label
_atom_site_type_symbol
_atom_site_symmetry_multiplicity
_atom_site_Wyckoff_symbol
_atom_site_fract_x
_atom_site_fract_y
_atom_site_fract_z
_atom_site_occupancy
_atom_site_fract_symmform
Bi1 Bi   4 i  0.2996600000  0.0000000000  0.6522300000  1.0000000000 Dx,0,Dz  
Bi2 Bi   4 i  0.7026800000  0.0000000000  0.8543400000  1.0000000000 Dx,0,Dz  
Bi3 Bi   8 j  0.5556050000  0.2181150000  0.1451900000  1.0000000000 Dx,Dy,Dz 
Bi4 Bi   8 j -0.0477562500  0.2435687500  0.3471575000  1.0000000000 Dx,Dy,Dz 
Bi5 Bi   4 i  0.7933200000  0.0000000000  0.6477800000  1.0000000000 Dx,0,Dz  
Bi6 Bi   4 i  0.1872800000  0.0000000000  0.8449550000  1.0000000000 Dx,0,Dz  
Te1 Te   4 i  0.6008900000  0.0000000000  0.5659400000  1.0000000000 Dx,0,Dz  
Te2 Te   8 j  0.6461425000  0.2499225000  0.4352450000  1.0000000000 Dx,Dy,Dz 
Te3 Te   8 j  0.8599175000  0.2522875000  0.0651050000  1.0000000000 Dx,Dy,Dz 
Te4 Te   4 i  0.8972825000  0.0000000000 -0.0661500000  1.0000000000 Dx,0,Dz  
Te5 Te   4 i  0.1039425000  0.0000000000  0.5654550000  1.0000000000 Dx,0,Dz  
Te6 Te   4 i -0.0024925000  0.0000000000  0.7568800000  1.0000000000 Dx,0,Dz  
Te7 Te   8 j  0.2506950000  0.2505550000  0.2495100000  1.0000000000 Dx,Dy,Dz 
Te8 Te   4 i  0.4990100000  0.0000000000  0.7506500000  1.0000000000 Dx,0,Dz
