# CIF file created by FINDSYM, version 7.1.3

data_findsym-output
_audit_creation_method FINDSYM

_cell_length_a     8.7731609684
_cell_length_b     8.7731652838
_cell_length_c     20.7828006246
_cell_angle_alpha  89.9999997110
_cell_angle_beta   102.1849109150
_cell_angle_gamma  119.9999489145
_cell_volume       1343.5381716515

_symmetry_space_group_name_H-M "P 1"
_symmetry_Int_Tables_number 1
_space_group.reference_setting '001:P 1'
_space_group.transform_Pp_abc a,b,c;0,0,0

loop_
_space_group_symop_id
_space_group_symop_operation_xyz
1 x,y,z

loop_
_atom_type_symbol
Bi    
Te    

loop_
_atom_site_label
_atom_site_type_symbol
_atom_site_symmetry_multiplicity
_atom_site_Wyckoff_symbol
_atom_site_fract_x
_atom_site_fract_y
_atom_site_fract_z
_atom_site_occupancy
_atom_site_fract_symmform
Bi1  Bi   1 a  0.3942300000  0.6957000000  0.1024600000  1.0000000000 Dx,Dy,Dz 
Bi2  Bi   1 a  0.6002900000  0.3035200000 -0.0964200000  1.0000000000 Dx,Dy,Dz 
Bi3  Bi   1 a  0.4076200000  0.7055200000  0.6012500000  1.0000000000 Dx,Dy,Dz 
Bi4  Bi   1 a  0.6027700000  0.3001100000  0.4015400000  1.0000000000 Dx,Dy,Dz 
Bi5  Bi   1 a -0.0908100000  0.7055100000  0.6015700000  1.0000000000 Dx,Dy,Dz 
Bi6  Bi   1 a  0.1023000000  0.2996800000  0.4018900000  1.0000000000 Dx,Dy,Dz 
Bi7  Bi   1 a  0.8910200000  0.6954700000  0.0971200000  1.0000000000 Dx,Dy,Dz 
Bi8  Bi   1 a -0.0975600000  0.2021900000  0.5942200000  1.0000000000 Dx,Dy,Dz 
Bi9  Bi   1 a  0.8953500000  0.1956500000  0.1031400000  1.0000000000 Dx,Dy,Dz 
Bi10 Bi   1 a  0.0982000000  0.7970000000 -0.0999400000  1.0000000000 Dx,Dy,Dz 
Bi11 Bi   1 a  0.3961800000  0.1954000000  0.1026900000  1.0000000000 Dx,Dy,Dz 
Bi12 Bi   1 a  0.5937100000  0.7969000000  0.8995400000  1.0000000000 Dx,Dy,Dz 
Bi13 Bi   1 a  0.4028400000  0.2011700000  0.5963000000  1.0000000000 Dx,Dy,Dz 
Te1  Te   1 a  0.0910000000  0.2906000000  0.8992100000  1.0000000000 Dx,Dy,Dz 
Te2  Te   1 a  0.1093300000  0.7987300000  0.3947900000  1.0000000000 Dx,Dy,Dz 
Te3  Te   1 a  0.6105800000  0.8003700000  0.3967600000  1.0000000000 Dx,Dy,Dz 
Te4  Te   1 a  0.2172900000  0.6321900000  0.8080000000  1.0000000000 Dx,Dy,Dz 
Te5  Te   1 a  0.7810800000  0.3854400000  0.1926400000  1.0000000000 Dx,Dy,Dz 
Te6  Te   1 a  0.1873400000  0.6046900000  0.3122100000  1.0000000000 Dx,Dy,Dz 
Te7  Te   1 a  0.8018700000  0.3981400000  0.6832000000  1.0000000000 Dx,Dy,Dz 
Te8  Te   1 a  0.6885500000  0.6051200000  0.3126600000  1.0000000000 Dx,Dy,Dz 
Te9  Te   1 a  0.2983300000  0.3967700000  0.6826600000  1.0000000000 Dx,Dy,Dz 
Te10 Te   1 a  0.7067400000  0.6034300000  0.8148400000  1.0000000000 Dx,Dy,Dz 
Te11 Te   1 a  0.2842700000  0.3918400000  0.1925000000  1.0000000000 Dx,Dy,Dz 
Te12 Te   1 a  0.7104300000  0.1008000000  0.3137700000  1.0000000000 Dx,Dy,Dz 
Te13 Te   1 a  0.3050900000 -0.0938000000  0.6909500000  1.0000000000 Dx,Dy,Dz 
Te14 Te   1 a  0.7170300000  0.1104300000  0.8166500000  1.0000000000 Dx,Dy,Dz 
Te15 Te   1 a  0.2811100000  0.8877700000  0.1856200000  1.0000000000 Dx,Dy,Dz 
Te16 Te   1 a  0.2017600000  0.1119300000  0.8177800000  1.0000000000 Dx,Dy,Dz 
Te17 Te   1 a  0.7852400000  0.8872600000  0.1857700000  1.0000000000 Dx,Dy,Dz 
Te18 Te   1 a  0.2114300000  0.1036000000  0.3138100000  1.0000000000 Dx,Dy,Dz 
Te19 Te   1 a  0.7975900000 -0.0999800000  0.6843300000  1.0000000000 Dx,Dy,Dz 
Te20 Te   1 a -0.0088300000 -0.0109500000  0.0047700000  1.0000000000 Dx,Dy,Dz 
Te21 Te   1 a  0.0170000000  0.0020400000  0.4978000000  1.0000000000 Dx,Dy,Dz 
Te22 Te   1 a  0.5132600000  0.0000300000  0.4967400000  1.0000000000 Dx,Dy,Dz 
Te23 Te   1 a  0.4951900000 -0.0015900000  0.0031100000  1.0000000000 Dx,Dy,Dz 
Te24 Te   1 a  0.5103700000  0.5103800000  0.4989300000  1.0000000000 Dx,Dy,Dz 
Te25 Te   1 a  0.4857300000  0.4916000000 -0.0011000000  1.0000000000 Dx,Dy,Dz 
Te26 Te   1 a -0.0028100000  0.4910500000 -0.0012000000  1.0000000000 Dx,Dy,Dz 
Te27 Te   1 a  0.0078700000  0.5083000000  0.4973900000  1.0000000000 Dx,Dy,Dz
