# CIF file created by FINDSYM, version 7.1.3

data_findsym-output
_audit_creation_method FINDSYM

_cell_length_a     8.7731609684
_cell_length_b     8.7731652838
_cell_length_c     20.7828006246
_cell_angle_alpha  89.9999997110
_cell_angle_beta   102.1849109150
_cell_angle_gamma  119.9999489145
_cell_volume       1343.5381716515

_symmetry_space_group_name_H-M "P 1"
_symmetry_Int_Tables_number 1
_space_group.reference_setting '001:P 1'
_space_group.transform_Pp_abc a,b,c;0,0,0

loop_
_space_group_symop_id
_space_group_symop_operation_xyz
1 x,y,z

loop_
_atom_type_symbol
Bi    
Te    

loop_
_atom_site_label
_atom_site_type_symbol
_atom_site_symmetry_multiplicity
_atom_site_Wyckoff_symbol
_atom_site_fract_x
_atom_site_fract_y
_atom_site_fract_z
_atom_site_occupancy
_atom_site_fract_symmform
Bi1  Bi   1 a  0.3958500000  0.6952900000  0.0987400000  1.0000000000 Dx,Dy,Dz 
Bi2  Bi   1 a  0.6002000000  0.3008800000  0.8994400000  1.0000000000 Dx,Dy,Dz 
Bi3  Bi   1 a  0.4059700000  0.7066600000  0.6023000000  1.0000000000 Dx,Dy,Dz 
Bi4  Bi   1 a  0.6018400000  0.3038500000  0.4022400000  1.0000000000 Dx,Dy,Dz 
Bi5  Bi   1 a -0.0946800000  0.7070700000  0.6008300000  1.0000000000 Dx,Dy,Dz 
Bi6  Bi   1 a  0.1031400000  0.3061900000  0.3992600000  1.0000000000 Dx,Dy,Dz 
Bi7  Bi   1 a  0.8932100000  0.6934100000  0.0962400000  1.0000000000 Dx,Dy,Dz 
Bi8  Bi   1 a  0.1112400000  0.8068300000  0.4066300000  1.0000000000 Dx,Dy,Dz 
Bi9  Bi   1 a  0.8970800000  0.1947100000  0.1012800000  1.0000000000 Dx,Dy,Dz 
Bi10 Bi   1 a  0.0981500000  0.7929400000  0.8979100000  1.0000000000 Dx,Dy,Dz 
Bi11 Bi   1 a  0.3992500000  0.1963900000  0.1018600000  1.0000000000 Dx,Dy,Dz 
Bi12 Bi   1 a  0.5935100000  0.7946100000  0.8983700000  1.0000000000 Dx,Dy,Dz 
Bi13 Bi   1 a  0.3944000000  0.1989700000  0.5947800000  1.0000000000 Dx,Dy,Dz 
Te1  Te   1 a  0.0919500000  0.2855600000  0.8985900000  1.0000000000 Dx,Dy,Dz 
Te2  Te   1 a -0.0919200000  0.2135600000  0.6054200000  1.0000000000 Dx,Dy,Dz 
Te3  Te   1 a  0.6085200000  0.8061900000  0.3953300000  1.0000000000 Dx,Dy,Dz 
Te4  Te   1 a  0.2163300000  0.6239400000  0.8083900000  1.0000000000 Dx,Dy,Dz 
Te5  Te   1 a  0.7864300000  0.3826900000  0.1937300000  1.0000000000 Dx,Dy,Dz 
Te6  Te   1 a  0.1894500000  0.6032200000  0.3125400000  1.0000000000 Dx,Dy,Dz 
Te7  Te   1 a  0.8004000000  0.3941000000  0.6845000000  1.0000000000 Dx,Dy,Dz 
Te8  Te   1 a  0.7152300000  0.6197700000  0.3183400000  1.0000000000 Dx,Dy,Dz 
Te9  Te   1 a  0.2900700000  0.3946600000  0.6851800000  1.0000000000 Dx,Dy,Dz 
Te10 Te   1 a  0.7029500000  0.5985600000  0.8077600000  1.0000000000 Dx,Dy,Dz 
Te11 Te   1 a  0.2880800000  0.3924400000  0.1862400000  1.0000000000 Dx,Dy,Dz 
Te12 Te   1 a  0.7083500000  0.1060400000  0.3115800000  1.0000000000 Dx,Dy,Dz 
Te13 Te   1 a  0.2996400000 -0.0938400000  0.6900800000  1.0000000000 Dx,Dy,Dz 
Te14 Te   1 a  0.7165400000  0.1068800000  0.8145100000  1.0000000000 Dx,Dy,Dz 
Te15 Te   1 a  0.2817900000  0.8862900000  0.1839600000  1.0000000000 Dx,Dy,Dz 
Te16 Te   1 a  0.2024000000  0.1076300000  0.8152600000  1.0000000000 Dx,Dy,Dz 
Te17 Te   1 a  0.7878800000  0.8867800000  0.1838500000  1.0000000000 Dx,Dy,Dz 
Te18 Te   1 a  0.2162500000  0.1142100000  0.3155800000  1.0000000000 Dx,Dy,Dz 
Te19 Te   1 a  0.7871900000  0.8792300000  0.6910400000  1.0000000000 Dx,Dy,Dz 
Te20 Te   1 a -0.0077900000 -0.0157200000  0.0031800000  1.0000000000 Dx,Dy,Dz 
Te21 Te   1 a  0.0033100000  0.0101400000  0.5033800000  1.0000000000 Dx,Dy,Dz 
Te22 Te   1 a  0.5149300000  0.0065700000  0.5012600000  1.0000000000 Dx,Dy,Dz 
Te23 Te   1 a  0.4958900000 -0.0050100000 -0.0016200000  1.0000000000 Dx,Dy,Dz 
Te24 Te   1 a  0.5056900000  0.5104100000  0.4989000000  1.0000000000 Dx,Dy,Dz 
Te25 Te   1 a  0.4863200000  0.4883400000 -0.0039600000  1.0000000000 Dx,Dy,Dz 
Te26 Te   1 a -0.0023600000  0.4885800000 -0.0037200000  1.0000000000 Dx,Dy,Dz 
Te27 Te   1 a  0.0073400000  0.5109900000  0.5008100000  1.0000000000 Dx,Dy,Dz
