# CIF file created by FINDSYM, version 7.1.3

data_findsym-output
_audit_creation_method FINDSYM

_cell_length_a     15.1955603663
_cell_length_b     8.7731699003
_cell_length_c     20.7828044891
_cell_angle_alpha  90.0000000000
_cell_angle_beta   104.1062147040
_cell_angle_gamma  90.0000000000
_cell_volume       2687.0763433043

_symmetry_space_group_name_H-M "C 1 m 1"
_symmetry_Int_Tables_number 8
_space_group.reference_setting '008:C -2y'
_space_group.transform_Pp_abc a,b,c;0,0,0

loop_
_space_group_symop_id
_space_group_symop_operation_xyz
1 x,y,z
2 x,-y,z
3 x+1/2,y+1/2,z
4 x+1/2,-y+1/2,z

loop_
_atom_type_symbol
Bi    
Te    

loop_
_atom_site_label
_atom_site_type_symbol
_atom_site_symmetry_multiplicity
_atom_site_Wyckoff_symbol
_atom_site_fract_x
_atom_site_fract_y
_atom_site_fract_z
_atom_site_occupancy
_atom_site_fract_symmform
Bi1  Bi   4 b -0.0502042500  0.2516600000  0.6008015000  1.0000000000 Dx,Dy,Dz 
Bi2  Bi   4 b  0.5499707500  0.2471950000  0.3993915000  1.0000000000 Dx,Dy,Dz 
Bi3  Bi   2 a  0.6991007500  0.0000000000  0.1046415000  1.0000000000 Dx,0,Dz  
Bi4  Bi   2 a  0.3018707500  0.0000000000  0.8967815000  1.0000000000 Dx,0,Dz  
Bi5  Bi   4 b -0.0465992500  0.2472000000  0.1028115000  1.0000000000 Dx,Dy,Dz 
Bi6  Bi   4 b  0.5479107500  0.2527900000 -0.0998135000  1.0000000000 Dx,Dy,Dz 
Bi7  Bi   2 a  0.6988807500  0.0000000000  0.5954215000  1.0000000000 Dx,0,Dz  
Bi8  Bi   2 a  0.2001457500  0.0000000000  0.6005215000  1.0000000000 Dx,0,Dz  
Bi9  Bi   2 a  0.7986157500  0.0000000000  0.3989015000  1.0000000000 Dx,0,Dz  
Te1  Te   2 a  0.2977007500  0.0000000000  0.3960515000  1.0000000000 Dx,0,Dz  
Te2  Te   2 a  0.2061757500  0.0000000000  0.0919915000  1.0000000000 Dx,0,Dz  
Te3  Te   2 a  0.7947107500  0.0000000000 -0.0905385000  1.0000000000 Dx,0,Dz  
Te4  Te   4 b  0.8536907500  0.2500650000  0.3120465000  1.0000000000 Dx,Dy,Dz 
Te5  Te   4 b  0.6450757500  0.2491000000  0.6846115000  1.0000000000 Dx,Dy,Dz 
Te6  Te   2 a  0.6156357500  0.0000000000  0.8202715000  1.0000000000 Dx,0,Dz  
Te7  Te   2 a  0.3861757500  0.0000000000  0.1819915000  1.0000000000 Dx,0,Dz  
Te8  Te   4 b  0.8579657500  0.2535950000  0.8127265000  1.0000000000 Dx,Dy,Dz 
Te9  Te   4 b  0.6430457500  0.2468500000  0.1880215000  1.0000000000 Dx,Dy,Dz 
Te10 Te   2 a  0.6017457500  0.0000000000  0.3092515000  1.0000000000 Dx,0,Dz  
Te11 Te   2 a  0.3974007500  0.0000000000  0.6906915000  1.0000000000 Dx,0,Dz  
Te12 Te   2 a  0.1045507500  0.0000000000  0.8133415000  1.0000000000 Dx,0,Dz  
Te13 Te   2 a  0.8978207500  0.0000000000  0.1949815000  1.0000000000 Dx,0,Dz  
Te14 Te   2 a  0.1085507500  0.0000000000  0.3135915000  1.0000000000 Dx,0,Dz  
Te15 Te   2 a  0.8923607500  0.0000000000  0.6842315000  1.0000000000 Dx,0,Dz  
Te16 Te   4 b  0.2494332500  0.2477075000  0.4971965000  1.0000000000 Dx,Dy,Dz 
Te17 Te   2 a  0.0008707500  0.0000000000  0.0014215000  1.0000000000 Dx,0,Dz  
Te18 Te   4 b  0.2508307500  0.2505700000  0.0009615000  1.0000000000 Dx,Dy,Dz 
Te19 Te   2 a -0.0004742500  0.0000000000  0.4995715000  1.0000000000 Dx,0,Dz  
Te20 Te   2 a  0.5011807500  0.0000000000  0.0031915000  1.0000000000 Dx,0,Dz  
Te21 Te   2 a  0.4947807500  0.0000000000  0.4962415000  1.0000000000 Dx,0,Dz
