# CIF file created by FINDSYM, version 7.1.3

data_findsym-output
_audit_creation_method FINDSYM

_cell_length_a     15.1955683624
_cell_length_b     8.7731652838
_cell_length_c     20.7828006246
_cell_angle_alpha  90.0000000000
_cell_angle_beta   104.1061723083
_cell_angle_gamma  90.0000000000
_cell_volume       2687.0763433050

_symmetry_space_group_name_H-M "C 1 m 1"
_symmetry_Int_Tables_number 8
_space_group.reference_setting '008:C -2y'
_space_group.transform_Pp_abc a,b,c;0,0,0

loop_
_space_group_symop_id
_space_group_symop_operation_xyz
1 x,y,z
2 x,-y,z
3 x+1/2,y+1/2,z
4 x+1/2,-y+1/2,z

loop_
_atom_type_symbol
Bi    
Te    

loop_
_atom_site_label
_atom_site_type_symbol
_atom_site_symmetry_multiplicity
_atom_site_Wyckoff_symbol
_atom_site_fract_x
_atom_site_fract_y
_atom_site_fract_z
_atom_site_occupancy
_atom_site_fract_symmform
Bi1  Bi   2 a  0.3023100000  0.0000000000 -0.0954800000  1.0000000000 Dx,0,Dz  
Bi2  Bi   2 a  0.7233300000  0.0000000000  0.1080000000  1.0000000000 Dx,0,Dz  
Bi3  Bi   2 a  0.2921100000  0.0000000000  0.3948300000  1.0000000000 Dx,0,Dz  
Bi4  Bi   2 a  0.6960800000  0.0000000000  0.5981400000  1.0000000000 Dx,0,Dz  
Bi5  Bi   4 b  0.5513750000  0.2195350000  0.3954600000  1.0000000000 Dx,Dy,Dz 
Bi6  Bi   4 b -0.0520400000  0.2441100000  0.5977300000  1.0000000000 Dx,Dy,Dz 
Bi7  Bi   4 b  0.5492525000  0.2501225000  0.8979850000  1.0000000000 Dx,Dy,Dz 
Bi8  Bi   4 b -0.0536900000  0.2500200000  0.0940400000  1.0000000000 Dx,Dy,Dz 
Bi9  Bi   2 a  0.8033850000  0.0000000000 -0.0955000000  1.0000000000 Dx,0,Dz  
Bi10 Bi   2 a  0.2229500000  0.0000000000  0.1080800000  1.0000000000 Dx,0,Dz  
Bi11 Bi   2 a  0.8091950000  0.0000000000  0.4059600000  1.0000000000 Dx,0,Dz  
Bi12 Bi   2 a  0.2035100000  0.0000000000  0.6027700000  1.0000000000 Dx,0,Dz  
Te1  Te   2 a  0.6047900000  0.0000000000  0.8145400000  1.0000000000 Dx,0,Dz  
Te2  Te   2 a  0.3950500000  0.0000000000  0.6859300000  1.0000000000 Dx,0,Dz  
Te3  Te   4 b  0.6420150000  0.2497250000  0.6857200000  1.0000000000 Dx,Dy,Dz 
Te4  Te   4 b  0.8563950000  0.2497250000  0.3157300000  1.0000000000 Dx,Dy,Dz 
Te5  Te   4 b  0.6450900000  0.2485800000  0.1804100000  1.0000000000 Dx,Dy,Dz 
Te6  Te   4 b  0.8511775000  0.2499625000  0.8158050000  1.0000000000 Dx,Dy,Dz 
Te7  Te   2 a  0.1041800000  0.0000000000  0.8138400000  1.0000000000 Dx,0,Dz  
Te8  Te   2 a  0.8914300000  0.0000000000  0.6852700000  1.0000000000 Dx,0,Dz  
Te9  Te   2 a  0.0974500000  0.0000000000  0.3159400000  1.0000000000 Dx,0,Dz  
Te10 Te   2 a  0.0016800000  0.0000000000  0.0065400000  1.0000000000 Dx,0,Dz  
Te11 Te   2 a -0.0015100000  0.0000000000  0.4952100000  1.0000000000 Dx,0,Dz  
Te12 Te   4 b  0.2465150000  0.2494150000  0.4997800000  1.0000000000 Dx,Dy,Dz 
Te13 Te   4 b  0.2449300000  0.2494800000 -0.0001300000  1.0000000000 Dx,Dy,Dz 
Te14 Te   2 a  0.5009700000  0.0000000000  0.0055800000  1.0000000000 Dx,0,Dz  
Te15 Te   2 a  0.4957800000  0.0000000000  0.4995200000  1.0000000000 Dx,0,Dz
