# CIF file created by FINDSYM, version 7.1.3

data_findsym-output
_audit_creation_method FINDSYM

_cell_length_a     15.1955758369
_cell_length_b     8.7731609684
_cell_length_c     20.7828083038
_cell_angle_alpha  90.0000000000
_cell_angle_beta   104.1062565540
_cell_angle_gamma  90.0000000000
_cell_volume       2687.0763433039

_symmetry_space_group_name_H-M "C 1 m 1"
_symmetry_Int_Tables_number 8
_space_group.reference_setting '008:C -2y'
_space_group.transform_Pp_abc a,b,c;0,0,0

loop_
_space_group_symop_id
_space_group_symop_operation_xyz
1 x,y,z
2 x,-y,z
3 x+1/2,y+1/2,z
4 x+1/2,-y+1/2,z

loop_
_atom_type_symbol
Bi    
Te    

loop_
_atom_site_label
_atom_site_type_symbol
_atom_site_symmetry_multiplicity
_atom_site_Wyckoff_symbol
_atom_site_fract_x
_atom_site_fract_y
_atom_site_fract_z
_atom_site_occupancy
_atom_site_fract_symmform
Bi1  Bi   2 a  0.6887900000  0.0000000000  0.0889800000  1.0000000000 Dx,0,Dz  
Bi2  Bi   2 a  0.2955400000  0.0000000000  0.8943300000  1.0000000000 Dx,0,Dz  
Bi3  Bi   4 b  0.4495950000  0.2499050000  0.5979200000  1.0000000000 Dx,Dy,Dz 
Bi4  Bi   4 b  0.0499800000  0.2453400000  0.3899000000  1.0000000000 Dx,Dy,Dz 
Bi5  Bi   2 a  0.2006400000  0.0000000000  0.0971100000  1.0000000000 Dx,0,Dz  
Bi6  Bi   2 a  0.8013800000  0.0000000000  0.8973600000  1.0000000000 Dx,0,Dz  
Bi7  Bi   2 a  0.7059400000  0.0000000000  0.6082400000  1.0000000000 Dx,0,Dz  
Bi8  Bi   2 a  0.3122400000  0.0000000000  0.4144900000  1.0000000000 Dx,0,Dz  
Bi9  Bi   4 b  0.4499350000  0.2590450000  0.1075600000  1.0000000000 Dx,Dy,Dz 
Bi10 Bi   4 b  0.0505050000  0.2524550000 -0.0981500000  1.0000000000 Dx,Dy,Dz 
Bi11 Bi   2 a  0.1969100000  0.0000000000  0.5999300000  1.0000000000 Dx,0,Dz  
Bi12 Bi   2 a  0.7949900000  0.0000000000  0.3979100000  1.0000000000 Dx,0,Dz  
Bi13 Bi   2 a -0.0976400000  0.0000000000  0.2045000000  1.0000000000 Dx,0,Dz  
Bi14 Bi   2 a  0.6006700000  0.0000000000  0.3045000000  1.0000000000 Dx,0,Dz  
Bi15 Bi   2 a  0.0958300000  0.0000000000  0.2963100000  1.0000000000 Dx,0,Dz  
Te1  Te   2 a  0.6059500000  0.0000000000  0.8139000000  1.0000000000 Dx,0,Dz  
Te2  Te   2 a  0.3963400000  0.0000000000  0.1874500000  1.0000000000 Dx,0,Dz  
Te3  Te   4 b  0.3519450000  0.2435850000  0.3178700000  1.0000000000 Dx,Dy,Dz 
Te4  Te   4 b  0.1444700000  0.2491500000  0.6884900000  1.0000000000 Dx,Dy,Dz 
Te5  Te   2 a  0.1028400000  0.0000000000  0.8133000000  1.0000000000 Dx,0,Dz  
Te6  Te   2 a  0.3937300000  0.0000000000  0.6858700000  1.0000000000 Dx,0,Dz  
Te7  Te   4 b  0.3564800000  0.2493900000  0.8121600000  1.0000000000 Dx,Dy,Dz 
Te8  Te   4 b  0.1482000000  0.2550200000  0.1834200000  1.0000000000 Dx,Dy,Dz 
Te9  Te   2 a  0.8984900000  0.0000000000  0.6885400000  1.0000000000 Dx,0,Dz  
Te10 Te   2 a  0.0017100000  0.0000000000  0.0009600000  1.0000000000 Dx,0,Dz  
Te11 Te   4 b  0.7470300000  0.2470600000  0.5022000000  1.0000000000 Dx,Dy,Dz 
Te12 Te   2 a  0.5010300000  0.0000000000 -0.0001400000  1.0000000000 Dx,0,Dz  
Te13 Te   2 a -0.0000900000  0.0000000000  0.5033000000  1.0000000000 Dx,0,Dz  
Te14 Te   4 b  0.7539450000  0.2516650000 -0.0007000000  1.0000000000 Dx,Dy,Dz 
Te15 Te   2 a  0.5005100000  0.0000000000  0.5017500000  1.0000000000 Dx,0,Dz
