# CIF file created by FINDSYM, version 7.1.3

data_findsym-output
_audit_creation_method FINDSYM

_cell_length_a     15.1955758369
_cell_length_b     8.7731609684
_cell_length_c     20.7828083038
_cell_angle_alpha  90.0000000000
_cell_angle_beta   104.1062565540
_cell_angle_gamma  90.0000000000
_cell_volume       2687.0763433039

_symmetry_space_group_name_H-M "C 1 m 1"
_symmetry_Int_Tables_number 8
_space_group.reference_setting '008:C -2y'
_space_group.transform_Pp_abc a,b,c;0,0,0

loop_
_space_group_symop_id
_space_group_symop_operation_xyz
1 x,y,z
2 x,-y,z
3 x+1/2,y+1/2,z
4 x+1/2,-y+1/2,z

loop_
_atom_type_symbol
Bi    
Te    

loop_
_atom_site_label
_atom_site_type_symbol
_atom_site_symmetry_multiplicity
_atom_site_Wyckoff_symbol
_atom_site_fract_x
_atom_site_fract_y
_atom_site_fract_z
_atom_site_occupancy
_atom_site_fract_symmform
Bi1  Bi   2 a  0.7135500000  0.0000000000  0.1042400000  1.0000000000 Dx,0,Dz  
Bi2  Bi   2 a  0.3203700000  0.0000000000 -0.0925100000  1.0000000000 Dx,0,Dz  
Bi3  Bi   4 b  0.4513050000  0.2493350000  0.6006900000  1.0000000000 Dx,Dy,Dz 
Bi4  Bi   4 b  0.0507800000  0.2497000000  0.3998000000  1.0000000000 Dx,Dy,Dz 
Bi5  Bi   2 a  0.1781900000  0.0000000000  0.0876400000  1.0000000000 Dx,0,Dz  
Bi6  Bi   2 a  0.7717700000  0.0000000000  0.8920200000  1.0000000000 Dx,0,Dz  
Bi7  Bi   2 a  0.7019800000  0.0000000000  0.6010000000  1.0000000000 Dx,0,Dz  
Bi8  Bi   2 a  0.3019900000  0.0000000000  0.3986100000  1.0000000000 Dx,0,Dz  
Bi9  Bi   4 b  0.4444350000  0.2062850000  0.1017500000  1.0000000000 Dx,Dy,Dz 
Bi10 Bi   4 b  0.0504250000  0.1816250000 -0.0973300000  1.0000000000 Dx,Dy,Dz 
Bi11 Bi   2 a  0.2012600000  0.0000000000  0.6021700000  1.0000000000 Dx,0,Dz  
Bi12 Bi   2 a  0.8004200000  0.0000000000  0.3986300000  1.0000000000 Dx,0,Dz  
Te1  Te   4 b  0.3556750000  0.2488950000  0.3128900000  1.0000000000 Dx,Dy,Dz 
Te2  Te   4 b  0.1456050000  0.2501150000  0.6871300000  1.0000000000 Dx,Dy,Dz 
Te3  Te   2 a -0.0960100000  0.0000000000  0.1823600000  1.0000000000 Dx,0,Dz  
Te4  Te   2 a  0.6046600000  0.0000000000  0.3137400000  1.0000000000 Dx,0,Dz  
Te5  Te   2 a  0.3974300000  0.0000000000  0.6868800000  1.0000000000 Dx,0,Dz  
Te6  Te   4 b  0.3600250000  0.2642050000  0.8204400000  1.0000000000 Dx,Dy,Dz 
Te7  Te   4 b  0.1410200000  0.2508000000  0.1801200000  1.0000000000 Dx,Dy,Dz 
Te8  Te   2 a  0.1060800000  0.0000000000  0.3139300000  1.0000000000 Dx,0,Dz  
Te9  Te   2 a  0.8980100000  0.0000000000  0.6862500000  1.0000000000 Dx,0,Dz  
Te10 Te   2 a -0.0187800000  0.0000000000  0.0032100000  1.0000000000 Dx,0,Dz  
Te11 Te   4 b  0.7506550000  0.2489650000  0.5004600000  1.0000000000 Dx,Dy,Dz 
Te12 Te   2 a  0.5042800000  0.0000000000 -0.0040800000  1.0000000000 Dx,0,Dz  
Te13 Te   2 a  0.0012600000  0.0000000000  0.5002700000  1.0000000000 Dx,0,Dz  
Te14 Te   4 b  0.7534500000  0.2500800000 -0.0004600000  1.0000000000 Dx,Dy,Dz 
Te15 Te   2 a  0.5020500000  0.0000000000  0.5004600000  1.0000000000 Dx,0,Dz
