# CIF file created by FINDSYM, version 7.1.3

data_findsym-output
_audit_creation_method FINDSYM

_cell_length_a     15.1955758369
_cell_length_b     8.7731609684
_cell_length_c     20.7828083038
_cell_angle_alpha  90.0000000000
_cell_angle_beta   104.1062565540
_cell_angle_gamma  90.0000000000
_cell_volume       2687.0763433039

_symmetry_space_group_name_H-M "C 1 m 1"
_symmetry_Int_Tables_number 8
_space_group.reference_setting '008:C -2y'
_space_group.transform_Pp_abc a,b,c;0,0,0

loop_
_space_group_symop_id
_space_group_symop_operation_xyz
1 x,y,z
2 x,-y,z
3 x+1/2,y+1/2,z
4 x+1/2,-y+1/2,z

loop_
_atom_type_symbol
Bi    
Te    

loop_
_atom_site_label
_atom_site_type_symbol
_atom_site_symmetry_multiplicity
_atom_site_Wyckoff_symbol
_atom_site_fract_x
_atom_site_fract_y
_atom_site_fract_z
_atom_site_occupancy
_atom_site_fract_symmform
Bi1  Bi   4 b  0.4527497500  0.2524700000  0.6010895000  1.0000000000 Dx,Dy,Dz 
Bi2  Bi   4 b  0.0484097500  0.2487700000  0.4005095000  1.0000000000 Dx,Dy,Dz 
Bi3  Bi   2 a  0.7012297500  0.0000000000  0.1017795000  1.0000000000 Dx,0,Dz  
Bi4  Bi   2 a  0.2998397500  0.0000000000 -0.0991105000  1.0000000000 Dx,0,Dz  
Bi5  Bi   2 a  0.2013397500  0.0000000000  0.1010195000  1.0000000000 Dx,0,Dz  
Bi6  Bi   2 a  0.7993397500  0.0000000000 -0.0999205000  1.0000000000 Dx,0,Dz  
Bi7  Bi   4 b  0.4512347500  0.2485750000  0.1022095000  1.0000000000 Dx,Dy,Dz 
Bi8  Bi   4 b  0.0505347500  0.2513850000  0.8997495000  1.0000000000 Dx,Dy,Dz 
Bi9  Bi   2 a  0.6965997500  0.0000000000  0.6003795000  1.0000000000 Dx,0,Dz  
Te1  Te   2 a  0.3007897500  0.0000000000  0.3901495000  1.0000000000 Dx,0,Dz  
Te2  Te   2 a  0.2049097500  0.0000000000  0.5890395000  1.0000000000 Dx,0,Dz  
Te3  Te   2 a  0.7923397500  0.0000000000  0.4089595000  1.0000000000 Dx,0,Dz  
Te4  Te   4 b  0.3562097500  0.2451700000  0.3111295000  1.0000000000 Dx,Dy,Dz 
Te5  Te   4 b  0.1424297500  0.2549400000  0.6864395000  1.0000000000 Dx,Dy,Dz 
Te6  Te   2 a  0.6021697500  0.0000000000  0.8104895000  1.0000000000 Dx,0,Dz  
Te7  Te   2 a  0.3986097500  0.0000000000  0.1903095000  1.0000000000 Dx,0,Dz  
Te8  Te   2 a  0.1052847500  0.0000000000  0.8142295000  1.0000000000 Dx,0,Dz  
Te9  Te   2 a  0.8977097500  0.0000000000  0.1926995000  1.0000000000 Dx,0,Dz  
Te10 Te   4 b  0.3545972500  0.2503125000  0.8149145000  1.0000000000 Dx,Dy,Dz 
Te11 Te   4 b  0.1464047500  0.2498350000  0.1868095000  1.0000000000 Dx,Dy,Dz 
Te12 Te   2 a  0.6132897500  0.0000000000  0.3189195000  1.0000000000 Dx,0,Dz  
Te13 Te   2 a  0.3835097500  0.0000000000  0.6799795000  1.0000000000 Dx,0,Dz  
Te14 Te   2 a  0.1066497500  0.0000000000  0.3122295000  1.0000000000 Dx,0,Dz  
Te15 Te   2 a  0.8939597500  0.0000000000  0.6856395000  1.0000000000 Dx,0,Dz  
Te16 Te   4 b  0.7497297500  0.2535700000  0.4973495000  1.0000000000 Dx,Dy,Dz 
Te17 Te   2 a -0.0000702500  0.0000000000  0.0013695000  1.0000000000 Dx,0,Dz  
Te18 Te   2 a  0.5014497500  0.0000000000  0.0025695000  1.0000000000 Dx,0,Dz  
Te19 Te   4 b  0.7508347500  0.2496950000  0.0013695000  1.0000000000 Dx,Dy,Dz 
Te20 Te   2 a -0.0011302500  0.0000000000  0.4996995000  1.0000000000 Dx,0,Dz  
Te21 Te   2 a  0.4958797500  0.0000000000  0.4963495000  1.0000000000 Dx,0,Dz
