# CIF file created by FINDSYM, version 7.1.3

data_findsym-output
_audit_creation_method FINDSYM

_cell_length_a     15.1955603663
_cell_length_b     8.7731699003
_cell_length_c     20.7828044891
_cell_angle_alpha  90.0000000000
_cell_angle_beta   104.1062147040
_cell_angle_gamma  90.0000000000
_cell_volume       2687.0763433043

_symmetry_space_group_name_H-M "C 1 2/m 1"
_symmetry_Int_Tables_number 12
_space_group.reference_setting '012:-C 2y'
_space_group.transform_Pp_abc a,b,c;0,0,0

loop_
_space_group_symop_id
_space_group_symop_operation_xyz
1 x,y,z
2 -x,y,-z
3 -x,-y,-z
4 x,-y,z
5 x+1/2,y+1/2,z
6 -x+1/2,y+1/2,-z
7 -x+1/2,-y+1/2,-z
8 x+1/2,-y+1/2,z

loop_
_atom_type_symbol
Bi    
Te    

loop_
_atom_site_label
_atom_site_type_symbol
_atom_site_symmetry_multiplicity
_atom_site_Wyckoff_symbol
_atom_site_fract_x
_atom_site_fract_y
_atom_site_fract_z
_atom_site_occupancy
_atom_site_fract_symmform
Bi1 Bi   4 i  0.5553050000  0.0000000000  0.1659300000  1.0000000000 Dx,0,Dz  
Bi2 Bi   8 j  0.1986612500  0.2477912500  0.8481825000  1.0000000000 Dx,Dy,Dz 
Bi3 Bi   8 j  0.7968550000  0.2479700000  0.6425450000  1.0000000000 Dx,Dy,Dz 
Bi4 Bi   4 i -0.0491350000  0.0000000000  0.8481900000  1.0000000000 Dx,0,Dz  
Bi5 Bi   4 i  0.5488525000  0.0000000000  0.6425450000  1.0000000000 Dx,0,Dz  
Te1 Te   4 i  0.8545300000  0.0000000000  0.0635800000  1.0000000000 Dx,0,Dz  
Te2 Te   4 i  0.6497000000  0.0000000000  0.4491400000  1.0000000000 Dx,0,Dz  
Te3 Te   8 j  0.1033450000  0.2514325000  0.5585700000  1.0000000000 Dx,Dy,Dz 
Te4 Te   8 j  0.8952525000  0.2538075000 -0.0680525000  1.0000000000 Dx,Dy,Dz 
Te5 Te   4 i  0.8519825000  0.0000000000  0.5586050000  1.0000000000 Dx,0,Dz  
Te6 Te   4 i  0.6414500000  0.0000000000 -0.0680500000  1.0000000000 Dx,0,Dz  
Te7 Te   4 i  0.2514550000  0.0000000000  0.2543700000  1.0000000000 Dx,0,Dz  
Te8 Te   8 j  0.4995162500  0.2536362500  0.7449025000  1.0000000000 Dx,Dy,Dz 
Te9 Te   4 i  0.2458750000  0.0000000000  0.7448950000  1.0000000000 Dx,0,Dz
