# CIF file created by FINDSYM, version 7.1.3

data_findsym-output
_audit_creation_method FINDSYM

_cell_length_a     15.1955683624
_cell_length_b     8.7731652838
_cell_length_c     20.7828006246
_cell_angle_alpha  90.0000000000
_cell_angle_beta   104.1061723083
_cell_angle_gamma  90.0000000000
_cell_volume       2687.0763433050

_symmetry_space_group_name_H-M "C 1 2/m 1"
_symmetry_Int_Tables_number 12
_space_group.reference_setting '012:-C 2y'
_space_group.transform_Pp_abc a,b,c;0,0,0

loop_
_space_group_symop_id
_space_group_symop_operation_xyz
1 x,y,z
2 -x,y,-z
3 -x,-y,-z
4 x,-y,z
5 x+1/2,y+1/2,z
6 -x+1/2,y+1/2,-z
7 -x+1/2,-y+1/2,-z
8 x+1/2,-y+1/2,z

loop_
_atom_type_symbol
Bi    
Te    

loop_
_atom_site_label
_atom_site_type_symbol
_atom_site_symmetry_multiplicity
_atom_site_Wyckoff_symbol
_atom_site_fract_x
_atom_site_fract_y
_atom_site_fract_z
_atom_site_occupancy
_atom_site_fract_symmform
Bi1  Bi   8 j  0.7983500000  0.2497500000  0.6505725000  1.0000000000 Dx,Dy,Dz 
Bi2  Bi   8 j  0.1982487500  0.2487987500  0.8517050000  1.0000000000 Dx,Dy,Dz 
Bi3  Bi   4 i  0.5491225000  0.0000000000  0.1496350000  1.0000000000 Dx,0,Dz  
Bi4  Bi   4 i -0.0488250000  0.0000000000  0.3490550000  1.0000000000 Dx,0,Dz  
Bi5  Bi   4 i  0.5503750000  0.0000000000  0.6551550000  1.0000000000 Dx,0,Dz  
Te1  Te   4 i -0.0538500000  0.0000000000  0.8540300000  1.0000000000 Dx,0,Dz  
Te2  Te   8 j  0.8965800000  0.2424350000 -0.0643150000  1.0000000000 Dx,Dy,Dz 
Te3  Te   8 j  0.1021412500  0.2531087500  0.5666375000  1.0000000000 Dx,Dy,Dz 
Te4  Te   4 i  0.6500200000  0.0000000000  0.4348200000  1.0000000000 Dx,0,Dz  
Te5  Te   4 i  0.8425400000  0.0000000000  0.0589700000  1.0000000000 Dx,0,Dz  
Te6  Te   4 i  0.6449700000  0.0000000000 -0.0581100000  1.0000000000 Dx,0,Dz  
Te7  Te   4 i  0.8533700000  0.0000000000  0.5644800000  1.0000000000 Dx,0,Dz  
Te8  Te   8 j  0.4970800000  0.2557250000  0.7546450000  1.0000000000 Dx,Dy,Dz 
Te9  Te   4 i  0.2565450000  0.0000000000  0.2499400000  1.0000000000 Dx,0,Dz  
Te10 Te   4 i  0.2482050000  0.0000000000  0.7523100000  1.0000000000 Dx,0,Dz
