# CIF file created by FINDSYM, version 7.1.3

data_findsym-output
_audit_creation_method FINDSYM

_cell_length_a     15.1955683624
_cell_length_b     8.7731652838
_cell_length_c     20.7828006246
_cell_angle_alpha  90.0000000000
_cell_angle_beta   104.1061723083
_cell_angle_gamma  90.0000000000
_cell_volume       2687.0763433050

_symmetry_space_group_name_H-M "C 1 m 1"
_symmetry_Int_Tables_number 8
_space_group.reference_setting '008:C -2y'
_space_group.transform_Pp_abc a,b,c;0,0,0

loop_
_space_group_symop_id
_space_group_symop_operation_xyz
1 x,y,z
2 x,-y,z
3 x+1/2,y+1/2,z
4 x+1/2,-y+1/2,z

loop_
_atom_type_symbol
Bi    
Te    

loop_
_atom_site_label
_atom_site_type_symbol
_atom_site_symmetry_multiplicity
_atom_site_Wyckoff_symbol
_atom_site_fract_x
_atom_site_fract_y
_atom_site_fract_z
_atom_site_occupancy
_atom_site_fract_symmform
Bi1  Bi   2 a  0.2955750000  0.0000000000  0.3948200000  1.0000000000 Dx,0,Dz  
Bi2  Bi   2 a  0.6941100000  0.0000000000  0.5984200000  1.0000000000 Dx,0,Dz  
Bi3  Bi   4 b  0.5314325000  0.2533925000  0.3955050000  1.0000000000 Dx,Dy,Dz 
Bi4  Bi   4 b -0.0627525000  0.2474725000  0.6004950000  1.0000000000 Dx,Dy,Dz 
Bi5  Bi   4 b  0.5478750000  0.2602100000  0.8889200000  1.0000000000 Dx,Dy,Dz 
Bi6  Bi   4 b -0.0428350000  0.2513800000  0.1119200000  1.0000000000 Dx,Dy,Dz 
Bi7  Bi   2 a  0.7957250000  0.0000000000  0.8865900000  1.0000000000 Dx,0,Dz  
Bi8  Bi   2 a  0.1882200000  0.0000000000  0.0853200000  1.0000000000 Dx,0,Dz  
Bi9  Bi   2 a  0.1812050000  0.0000000000  0.5801400000  1.0000000000 Dx,0,Dz  
Te1  Te   2 a  0.4126750000  0.0000000000  0.2088000000  1.0000000000 Dx,0,Dz  
Te2  Te   2 a  0.5993950000  0.0000000000  0.8051300000  1.0000000000 Dx,0,Dz  
Te3  Te   2 a  0.3790250000  0.0000000000  0.6807700000  1.0000000000 Dx,0,Dz  
Te4  Te   2 a  0.5806350000  0.0000000000  0.3015100000  1.0000000000 Dx,0,Dz  
Te5  Te   4 b  0.6347375000  0.2543725000  0.6799250000  1.0000000000 Dx,Dy,Dz 
Te6  Te   4 b  0.8385650000  0.2350100000  0.3159100000  1.0000000000 Dx,Dy,Dz 
Te7  Te   4 b  0.6548550000  0.2465700000  0.1819400000  1.0000000000 Dx,Dy,Dz 
Te8  Te   4 b  0.8539725000  0.2594675000  0.8136950000  1.0000000000 Dx,Dy,Dz 
Te9  Te   2 a -0.0908950000  0.0000000000  0.1979900000  1.0000000000 Dx,0,Dz  
Te10 Te   2 a  0.1113850000  0.0000000000  0.8126100000  1.0000000000 Dx,0,Dz  
Te11 Te   2 a  0.8870150000  0.0000000000  0.6894500000  1.0000000000 Dx,0,Dz  
Te12 Te   2 a  0.0889000000  0.0000000000  0.3045100000  1.0000000000 Dx,0,Dz  
Te13 Te   2 a -0.0028700000  0.0000000000  0.0025200000  1.0000000000 Dx,0,Dz  
Te14 Te   2 a -0.0166750000  0.0000000000  0.4932800000  1.0000000000 Dx,0,Dz  
Te15 Te   4 b  0.2373850000  0.2551550000  0.4931700000  1.0000000000 Dx,Dy,Dz 
Te16 Te   4 b  0.2566475000  0.2590575000  0.0040500000  1.0000000000 Dx,Dy,Dz 
Te17 Te   2 a  0.7089250000  0.0000000000  0.0920400000  1.0000000000 Dx,0,Dz  
Te18 Te   2 a  0.4879150000  0.0000000000  0.4951200000  1.0000000000 Dx,0,Dz
