# CIF file created by FINDSYM, version 7.1.3

data_findsym-output
_audit_creation_method FINDSYM

_cell_length_a     8.7731609684
_cell_length_b     8.7731652838
_cell_length_c     20.7828006246
_cell_angle_alpha  89.9999997110
_cell_angle_beta   102.1849109150
_cell_angle_gamma  119.9999489145
_cell_volume       1343.5381716515

_symmetry_space_group_name_H-M "P 1"
_symmetry_Int_Tables_number 1
_space_group.reference_setting '001:P 1'
_space_group.transform_Pp_abc a,b,c;0,0,0

loop_
_space_group_symop_id
_space_group_symop_operation_xyz
1 x,y,z

loop_
_atom_type_symbol
Bi    
Te    

loop_
_atom_site_label
_atom_site_type_symbol
_atom_site_symmetry_multiplicity
_atom_site_Wyckoff_symbol
_atom_site_fract_x
_atom_site_fract_y
_atom_site_fract_z
_atom_site_occupancy
_atom_site_fract_symmform
Bi1  Bi   1 a  0.3934500000  0.7009400000  0.1004300000  1.0000000000 Dx,Dy,Dz 
Bi2  Bi   1 a  0.5979300000  0.2995500000 -0.0975200000  1.0000000000 Dx,Dy,Dz 
Bi3  Bi   1 a  0.4079700000  0.6989800000  0.6021500000  1.0000000000 Dx,Dy,Dz 
Bi4  Bi   1 a  0.6041000000  0.3003200000  0.4033200000  1.0000000000 Dx,Dy,Dz 
Bi5  Bi   1 a -0.0907100000  0.6999200000  0.6025600000  1.0000000000 Dx,Dy,Dz 
Bi6  Bi   1 a  0.1076300000  0.3048600000  0.4007000000  1.0000000000 Dx,Dy,Dz 
Bi7  Bi   1 a  0.8928500000  0.7001800000  0.1016900000  1.0000000000 Dx,Dy,Dz 
Bi8  Bi   1 a  0.0981400000  0.3005000000 -0.0979000000  1.0000000000 Dx,Dy,Dz 
Bi9  Bi   1 a -0.0902700000  0.2017000000  0.6031300000  1.0000000000 Dx,Dy,Dz 
Bi10 Bi   1 a  0.1048500000  0.7976800000  0.3998300000  1.0000000000 Dx,Dy,Dz 
Bi11 Bi   1 a  0.8894800000  0.1992200000  0.0955800000  1.0000000000 Dx,Dy,Dz 
Bi12 Bi   1 a  0.3913400000  0.1994900000  0.0962600000  1.0000000000 Dx,Dy,Dz 
Bi13 Bi   1 a  0.4037700000  0.1970400000  0.5974200000  1.0000000000 Dx,Dy,Dz 
Te1  Te   1 a  0.5821400000  0.7970100000  0.8944800000  1.0000000000 Dx,Dy,Dz 
Te2  Te   1 a  0.0837700000  0.7990200000  0.8956900000  1.0000000000 Dx,Dy,Dz 
Te3  Te   1 a  0.6129200000  0.8036000000  0.3984500000  1.0000000000 Dx,Dy,Dz 
Te4  Te   1 a  0.2226900000  0.5956700000  0.8085100000  1.0000000000 Dx,Dy,Dz 
Te5  Te   1 a  0.7776300000  0.3977300000  0.1893900000  1.0000000000 Dx,Dy,Dz 
Te6  Te   1 a  0.1777500000  0.5864500000  0.3083200000  1.0000000000 Dx,Dy,Dz 
Te7  Te   1 a  0.8137300000  0.4012700000  0.6936500000  1.0000000000 Dx,Dy,Dz 
Te8  Te   1 a  0.7099300000  0.6089500000  0.3152100000  1.0000000000 Dx,Dy,Dz 
Te9  Te   1 a  0.3077900000  0.3950200000  0.6903200000  1.0000000000 Dx,Dy,Dz 
Te10 Te   1 a  0.7242700000  0.5983200000  0.8108500000  1.0000000000 Dx,Dy,Dz 
Te11 Te   1 a  0.2769700000  0.3962700000  0.1835400000  1.0000000000 Dx,Dy,Dz 
Te12 Te   1 a  0.7110800000  0.0945800000  0.3179800000  1.0000000000 Dx,Dy,Dz 
Te13 Te   1 a  0.2994400000  0.8988000000  0.6854700000  1.0000000000 Dx,Dy,Dz 
Te14 Te   1 a  0.7010200000  0.0960900000  0.8156200000  1.0000000000 Dx,Dy,Dz 
Te15 Te   1 a  0.2845500000  0.8990500000  0.1846900000  1.0000000000 Dx,Dy,Dz 
Te16 Te   1 a  0.2008100000  0.0957900000  0.8160300000  1.0000000000 Dx,Dy,Dz 
Te17 Te   1 a  0.7857300000 -0.0990300000  0.1843000000  1.0000000000 Dx,Dy,Dz 
Te18 Te   1 a  0.2159600000  0.1065000000  0.3157500000  1.0000000000 Dx,Dy,Dz 
Te19 Te   1 a  0.7966400000  0.8955800000  0.6871900000  1.0000000000 Dx,Dy,Dz 
Te20 Te   1 a -0.0192100000  0.0020400000 -0.0003500000  1.0000000000 Dx,Dy,Dz 
Te21 Te   1 a  0.0201700000  0.0069500000  0.5051100000  1.0000000000 Dx,Dy,Dz 
Te22 Te   1 a  0.5133900000 -0.0026700000  0.4998000000  1.0000000000 Dx,Dy,Dz 
Te23 Te   1 a  0.4806200000  0.0000800000 -0.0025700000  1.0000000000 Dx,Dy,Dz 
Te24 Te   1 a  0.5106000000  0.5086500000  0.4985700000  1.0000000000 Dx,Dy,Dz 
Te25 Te   1 a  0.4957800000  0.5079900000 -0.0030500000  1.0000000000 Dx,Dy,Dz 
Te26 Te   1 a -0.0039200000  0.5091500000 -0.0027700000  1.0000000000 Dx,Dy,Dz 
Te27 Te   1 a  0.0072000000  0.5007600000  0.5021200000  1.0000000000 Dx,Dy,Dz
