# CIF file created by FINDSYM, version 7.1.3

data_findsym-output
_audit_creation_method FINDSYM

_cell_length_a     8.7731609684
_cell_length_b     8.7731652838
_cell_length_c     20.7828006246
_cell_angle_alpha  89.9999997110
_cell_angle_beta   102.1849109150
_cell_angle_gamma  119.9999489145
_cell_volume       1343.5381716515

_symmetry_space_group_name_H-M "P -1"
_symmetry_Int_Tables_number 2
_space_group.reference_setting '002:-P 1'
_space_group.transform_Pp_abc a,b,c;0,0,0

loop_
_space_group_symop_id
_space_group_symop_operation_xyz
1 x,y,z
2 -x,-y,-z

loop_
_atom_type_symbol
Bi    
Te    

loop_
_atom_site_label
_atom_site_type_symbol
_atom_site_symmetry_multiplicity
_atom_site_Wyckoff_symbol
_atom_site_fract_x
_atom_site_fract_y
_atom_site_fract_z
_atom_site_occupancy
_atom_site_fract_symmform
Bi1  Bi   2 i  0.4004300000  0.7009900000  0.0998800000  1.0000000000 Dx,Dy,Dz 
Bi2  Bi   2 i  0.3984600000  0.7042400000  0.6016000000  1.0000000000 Dx,Dy,Dz 
Bi3  Bi   2 i -0.0927000000  0.7040400000  0.6016600000  1.0000000000 Dx,Dy,Dz 
Bi4  Bi   2 i -0.0996250000  0.6999850000  0.1007550000  1.0000000000 Dx,Dy,Dz 
Bi5  Bi   2 i  0.8976600000  0.1967800000  0.5988600000  1.0000000000 Dx,Dy,Dz 
Bi6  Bi   2 i -0.0993250000  0.2019150000  0.1006400000  1.0000000000 Dx,Dy,Dz 
Bi7  Bi   2 i  0.4018200000  0.2018600000  0.1006100000  1.0000000000 Dx,Dy,Dz 
Te1  Te   2 i  0.4061700000  0.2180100000  0.5950600000  1.0000000000 Dx,Dy,Dz 
Te2  Te   2 i  0.2038450000  0.5977050000  0.8099850000  1.0000000000 Dx,Dy,Dz 
Te3  Te   2 i  0.2221500000  0.6122800000  0.3169500000  1.0000000000 Dx,Dy,Dz 
Te4  Te   2 i  0.7067400000  0.6125300000  0.3171400000  1.0000000000 Dx,Dy,Dz 
Te5  Te   2 i  0.7098600000  0.6055100000  0.8141800000  1.0000000000 Dx,Dy,Dz 
Te6  Te   2 i  0.7143900000  0.1179700000  0.3109150000  1.0000000000 Dx,Dy,Dz 
Te7  Te   2 i  0.7075050000  0.1030100000  0.8141650000  1.0000000000 Dx,Dy,Dz 
Te8  Te   2 i  0.2096500000  0.1030100000  0.8141600000  1.0000000000 Dx,Dy,Dz 
Te9  Te   2 i  0.2090100000  0.1042800000  0.3137000000  1.0000000000 Dx,Dy,Dz 
Te10 Te   1 a  0.0000000000  0.0000000000  0.0000000000  1.0000000000 0,0,0    
Te11 Te   1 b  0.0000000000  0.0000000000  0.5000000000  1.0000000000 0,0,0    
Te12 Te   1 f  0.5000000000  0.0000000000  0.5000000000  1.0000000000 0,0,0    
Te13 Te   1 d  0.5000000000  0.0000000000  0.0000000000  1.0000000000 0,0,0    
Te14 Te   1 h  0.5000000000  0.5000000000  0.5000000000  1.0000000000 0,0,0    
Te15 Te   1 e  0.5000000000  0.5000000000  0.0000000000  1.0000000000 0,0,0    
Te16 Te   1 c  0.0000000000  0.5000000000  0.0000000000  1.0000000000 0,0,0    
Te17 Te   1 g  0.0000000000  0.5000000000  0.5000000000  1.0000000000 0,0,0
