# CIF file created by FINDSYM, version 7.1.3

data_findsym-output
_audit_creation_method FINDSYM

_cell_length_a     8.7731609684
_cell_length_b     8.7731652838
_cell_length_c     20.7828006246
_cell_angle_alpha  89.9999997110
_cell_angle_beta   102.1849109150
_cell_angle_gamma  119.9999489145
_cell_volume       1343.5381716515

_symmetry_space_group_name_H-M "P 1"
_symmetry_Int_Tables_number 1
_space_group.reference_setting '001:P 1'
_space_group.transform_Pp_abc a,b,c;0,0,0

loop_
_space_group_symop_id
_space_group_symop_operation_xyz
1 x,y,z

loop_
_atom_type_symbol
Bi    
Te    

loop_
_atom_site_label
_atom_site_type_symbol
_atom_site_symmetry_multiplicity
_atom_site_Wyckoff_symbol
_atom_site_fract_x
_atom_site_fract_y
_atom_site_fract_z
_atom_site_occupancy
_atom_site_fract_symmform
Bi1  Bi   1 a  0.6190200000  0.3316500000 -0.0942000000  1.0000000000 Dx,Dy,Dz 
Bi2  Bi   1 a  0.4146300000  0.6965800000  0.5922000000  1.0000000000 Dx,Dy,Dz 
Bi3  Bi   1 a -0.0772900000  0.7243700000  0.6025000000  1.0000000000 Dx,Dy,Dz 
Bi4  Bi   1 a  0.1233600000  0.3222900000  0.4078900000  1.0000000000 Dx,Dy,Dz 
Bi5  Bi   1 a  0.8646300000  0.6927300000  0.0897100000  1.0000000000 Dx,Dy,Dz 
Bi6  Bi   1 a  0.1064600000  0.3199200000  0.8931500000  1.0000000000 Dx,Dy,Dz 
Bi7  Bi   1 a -0.0764500000  0.2045500000  0.6123200000  1.0000000000 Dx,Dy,Dz 
Bi8  Bi   1 a  0.1259800000  0.7959600000  0.4089800000  1.0000000000 Dx,Dy,Dz 
Bi9  Bi   1 a  0.8798400000  0.2111300000  0.0913600000  1.0000000000 Dx,Dy,Dz 
Bi10 Bi   1 a  0.1043100000  0.8105300000  0.8962800000  1.0000000000 Dx,Dy,Dz 
Bi11 Bi   1 a  0.3637700000  0.1710500000  0.0999200000  1.0000000000 Dx,Dy,Dz 
Bi12 Bi   1 a  0.4285600000  0.2045400000  0.6054400000  1.0000000000 Dx,Dy,Dz 
Bi13 Bi   1 a  0.6342100000  0.8115200000  0.3966400000  1.0000000000 Dx,Dy,Dz 
Te1  Te   1 a  0.2542700000  0.6405000000  0.8229100000  1.0000000000 Dx,Dy,Dz 
Te2  Te   1 a  0.7697500000  0.3929100000  0.1820400000  1.0000000000 Dx,Dy,Dz 
Te3  Te   1 a  0.2300600000  0.6095200000  0.3175100000  1.0000000000 Dx,Dy,Dz 
Te4  Te   1 a  0.8159100000  0.3958800000  0.7037000000  1.0000000000 Dx,Dy,Dz 
Te5  Te   1 a  0.7695700000  0.6511000000  0.3081900000  1.0000000000 Dx,Dy,Dz 
Te6  Te   1 a  0.3153600000  0.3999000000  0.6902100000  1.0000000000 Dx,Dy,Dz 
Te7  Te   1 a  0.7149200000  0.6266500000  0.8243100000  1.0000000000 Dx,Dy,Dz 
Te8  Te   1 a  0.2403000000  0.3426100000  0.1974900000  1.0000000000 Dx,Dy,Dz 
Te9  Te   1 a  0.7596900000  0.1118000000  0.3122700000  1.0000000000 Dx,Dy,Dz 
Te10 Te   1 a  0.3034800000  0.8878600000  0.6862400000  1.0000000000 Dx,Dy,Dz 
Te11 Te   1 a  0.7268000000  0.1532400000  0.7981100000  1.0000000000 Dx,Dy,Dz 
Te12 Te   1 a  0.2317600000  0.8864800000  0.1997000000  1.0000000000 Dx,Dy,Dz 
Te13 Te   1 a  0.2208900000  0.1195200000  0.8135900000  1.0000000000 Dx,Dy,Dz 
Te14 Te   1 a  0.6686300000  0.8671500000  0.1477700000  1.0000000000 Dx,Dy,Dz 
Te15 Te   1 a  0.0426100000  0.0177800000  0.2614600000  1.0000000000 Dx,Dy,Dz 
Te16 Te   1 a  0.8015600000  0.8925100000  0.6897100000  1.0000000000 Dx,Dy,Dz 
Te17 Te   1 a -0.0185700000 -0.0008700000 -0.0025000000  1.0000000000 Dx,Dy,Dz 
Te18 Te   1 a  0.0235700000  0.0044500000  0.5075800000  1.0000000000 Dx,Dy,Dz 
Te19 Te   1 a  0.5293000000  0.0031300000  0.5045100000  1.0000000000 Dx,Dy,Dz 
Te20 Te   1 a  0.4668200000 -0.0778100000  0.0297500000  1.0000000000 Dx,Dy,Dz 
Te21 Te   1 a  0.5254800000  0.4964100000  0.5031800000  1.0000000000 Dx,Dy,Dz 
Te22 Te   1 a  0.4771300000  0.4621000000  0.0024200000  1.0000000000 Dx,Dy,Dz 
Te23 Te   1 a  0.0103900000  0.5211000000  0.0020600000  1.0000000000 Dx,Dy,Dz 
Te24 Te   1 a  0.0093200000  0.4992900000  0.4956200000  1.0000000000 Dx,Dy,Dz
