# CIF file created by FINDSYM, version 7.1.3

data_findsym-output
_audit_creation_method FINDSYM

_cell_length_a     15.1955758369
_cell_length_b     8.7731609684
_cell_length_c     20.7828083038
_cell_angle_alpha  90.0000000000
_cell_angle_beta   104.1062565540
_cell_angle_gamma  90.0000000000
_cell_volume       2687.0763433039

_symmetry_space_group_name_H-M "C 1 m 1"
_symmetry_Int_Tables_number 8
_space_group.reference_setting '008:C -2y'
_space_group.transform_Pp_abc a,b,c;0,0,0

loop_
_space_group_symop_id
_space_group_symop_operation_xyz
1 x,y,z
2 x,-y,z
3 x+1/2,y+1/2,z
4 x+1/2,-y+1/2,z

loop_
_atom_type_symbol
Bi    
Te    

loop_
_atom_site_label
_atom_site_type_symbol
_atom_site_symmetry_multiplicity
_atom_site_Wyckoff_symbol
_atom_site_fract_x
_atom_site_fract_y
_atom_site_fract_z
_atom_site_occupancy
_atom_site_fract_symmform
Bi1  Bi   4 b  0.4509000000  0.2493400000  0.6043900000  1.0000000000 Dx,Dy,Dz 
Bi2  Bi   4 b  0.0491100000  0.2487600000  0.3986700000  1.0000000000 Dx,Dy,Dz 
Bi3  Bi   2 a  0.6993800000  0.0000000000  0.1002000000  1.0000000000 Dx,0,Dz  
Bi4  Bi   2 a  0.2996300000  0.0000000000  0.8999800000  1.0000000000 Dx,0,Dz  
Bi5  Bi   2 a  0.2000300000  0.0000000000  0.1023300000  1.0000000000 Dx,0,Dz  
Bi6  Bi   2 a  0.7999300000  0.0000000000 -0.0988400000  1.0000000000 Dx,0,Dz  
Bi7  Bi   4 b  0.4498950000  0.2497250000  0.1010100000  1.0000000000 Dx,Dy,Dz 
Bi8  Bi   4 b  0.0496950000  0.2499350000  0.8990800000  1.0000000000 Dx,Dy,Dz 
Bi9  Bi   2 a  0.7033100000  0.0000000000  0.6003500000  1.0000000000 Dx,0,Dz  
Bi10 Bi   2 a  0.2982300000  0.0000000000  0.3966800000  1.0000000000 Dx,0,Dz  
Bi11 Bi   2 a  0.2032300000  0.0000000000  0.6011000000  1.0000000000 Dx,0,Dz  
Bi12 Bi   2 a  0.8004800000  0.0000000000  0.4006700000  1.0000000000 Dx,0,Dz  
Bi13 Bi   2 a  0.3992300000  0.0000000000  0.6943700000  1.0000000000 Dx,0,Dz  
Bi14 Bi   2 a  0.1009100000  0.0000000000  0.3038200000  1.0000000000 Dx,0,Dz  
Bi15 Bi   2 a  0.8993100000  0.0000000000  0.6931400000  1.0000000000 Dx,0,Dz  
Te1  Te   4 b  0.3537200000  0.2496200000  0.3125400000  1.0000000000 Dx,Dy,Dz 
Te2  Te   4 b  0.1461350000  0.2493750000  0.6848500000  1.0000000000 Dx,Dy,Dz 
Te3  Te   2 a  0.6033200000  0.0000000000  0.8120100000  1.0000000000 Dx,0,Dz  
Te4  Te   2 a  0.3958000000  0.0000000000  0.1874900000  1.0000000000 Dx,0,Dz  
Te5  Te   2 a  0.1034800000  0.0000000000  0.8125300000  1.0000000000 Dx,0,Dz  
Te6  Te   2 a  0.8965100000  0.0000000000  0.1879100000  1.0000000000 Dx,0,Dz  
Te7  Te   4 b  0.3545800000  0.2497900000  0.8126400000  1.0000000000 Dx,Dy,Dz 
Te8  Te   4 b  0.1445900000  0.2482900000  0.1882000000  1.0000000000 Dx,Dy,Dz 
Te9  Te   2 a  0.6039600000  0.0000000000  0.3129800000  1.0000000000 Dx,0,Dz  
Te10 Te   4 b  0.7496700000  0.2497100000  0.4986100000  1.0000000000 Dx,Dy,Dz 
Te11 Te   2 a -0.0007800000  0.0000000000 -0.0009200000  1.0000000000 Dx,0,Dz  
Te12 Te   2 a  0.4998500000  0.0000000000 -0.0000200000  1.0000000000 Dx,0,Dz  
Te13 Te   4 b  0.7495500000  0.2489600000 -0.0000300000  1.0000000000 Dx,Dy,Dz 
Te14 Te   2 a -0.0010800000  0.0000000000  0.4955900000  1.0000000000 Dx,0,Dz  
Te15 Te   2 a  0.4995400000  0.0000000000  0.4986400000  1.0000000000 Dx,0,Dz
