# CIF file created by FINDSYM, version 7.1.3

data_findsym-output
_audit_creation_method FINDSYM

_cell_length_a     15.1955758369
_cell_length_b     8.7731609684
_cell_length_c     20.7828083038
_cell_angle_alpha  90.0000000000
_cell_angle_beta   104.1062565540
_cell_angle_gamma  90.0000000000
_cell_volume       2687.0763433039

_symmetry_space_group_name_H-M "C 1 m 1"
_symmetry_Int_Tables_number 8
_space_group.reference_setting '008:C -2y'
_space_group.transform_Pp_abc a,b,c;0,0,0

loop_
_space_group_symop_id
_space_group_symop_operation_xyz
1 x,y,z
2 x,-y,z
3 x+1/2,y+1/2,z
4 x+1/2,-y+1/2,z

loop_
_atom_type_symbol
Bi    
Te    

loop_
_atom_site_label
_atom_site_type_symbol
_atom_site_symmetry_multiplicity
_atom_site_Wyckoff_symbol
_atom_site_fract_x
_atom_site_fract_y
_atom_site_fract_z
_atom_site_occupancy
_atom_site_fract_symmform
Bi1  Bi   2 a  0.6990900000  0.0000000000  0.0975400000  1.0000000000 Dx,0,Dz  
Bi2  Bi   2 a  0.2989200000  0.0000000000  0.8964800000  1.0000000000 Dx,0,Dz  
Bi3  Bi   4 b  0.4653600000  0.2429600000  0.6071200000  1.0000000000 Dx,Dy,Dz 
Bi4  Bi   4 b  0.0514650000  0.2485250000  0.4023400000  1.0000000000 Dx,Dy,Dz 
Bi5  Bi   2 a  0.2056400000  0.0000000000  0.1020300000  1.0000000000 Dx,0,Dz  
Bi6  Bi   2 a  0.8105300000  0.0000000000 -0.0950000000  1.0000000000 Dx,0,Dz  
Bi7  Bi   2 a  0.6406400000  0.0000000000  0.6163600000  1.0000000000 Dx,0,Dz  
Bi8  Bi   2 a  0.2878400000  0.0000000000  0.4033000000  1.0000000000 Dx,0,Dz  
Bi9  Bi   4 b  0.4529750000  0.2555350000  0.0979000000  1.0000000000 Dx,Dy,Dz 
Bi10 Bi   4 b  0.0570600000  0.2745500000  0.8961300000  1.0000000000 Dx,Dy,Dz 
Bi11 Bi   2 a  0.2008600000  0.0000000000  0.5832600000  1.0000000000 Dx,0,Dz  
Bi12 Bi   2 a  0.8005400000  0.0000000000  0.3926100000  1.0000000000 Dx,0,Dz  
Te1  Te   2 a  0.3983500000  0.0000000000  0.1842000000  1.0000000000 Dx,0,Dz  
Te2  Te   4 b  0.3527650000  0.2439450000  0.3151200000  1.0000000000 Dx,Dy,Dz 
Te3  Te   2 a  0.1067200000  0.0000000000  0.8155900000  1.0000000000 Dx,0,Dz  
Te4  Te   2 a  0.8958400000  0.0000000000  0.1846700000  1.0000000000 Dx,0,Dz  
Te5  Te   2 a  0.6007800000  0.0000000000  0.3140400000  1.0000000000 Dx,0,Dz  
Te6  Te   2 a  0.3896400000  0.0000000000  0.6807900000  1.0000000000 Dx,0,Dz  
Te7  Te   4 b  0.3593000000  0.2513000000  0.8158600000  1.0000000000 Dx,Dy,Dz 
Te8  Te   4 b  0.1459750000  0.2508350000  0.1860100000  1.0000000000 Dx,Dy,Dz 
Te9  Te   2 a  0.1010000000  0.0000000000  0.3123900000  1.0000000000 Dx,0,Dz  
Te10 Te   2 a -0.0902300000  0.0000000000  0.6860000000  1.0000000000 Dx,0,Dz  
Te11 Te   2 a  0.0021000000  0.0000000000 -0.0067400000  1.0000000000 Dx,0,Dz  
Te12 Te   4 b  0.7469550000  0.2459350000  0.5054000000  1.0000000000 Dx,Dy,Dz 
Te13 Te   2 a  0.5026300000  0.0000000000 -0.0004900000  1.0000000000 Dx,0,Dz  
Te14 Te   2 a -0.0073400000  0.0000000000  0.4979800000  1.0000000000 Dx,0,Dz  
Te15 Te   4 b  0.7505350000  0.2508150000  0.0007700000  1.0000000000 Dx,Dy,Dz 
Te16 Te   2 a  0.4963500000  0.0000000000  0.4957700000  1.0000000000 Dx,0,Dz
