# CIF file created by FINDSYM, version 7.1.3

data_findsym-output
_audit_creation_method FINDSYM

_cell_length_a     15.1955683624
_cell_length_b     8.7731652838
_cell_length_c     20.7828006246
_cell_angle_alpha  90.0000000000
_cell_angle_beta   104.1061723083
_cell_angle_gamma  90.0000000000
_cell_volume       2687.0763433050

_symmetry_space_group_name_H-M "C 1 m 1"
_symmetry_Int_Tables_number 8
_space_group.reference_setting '008:C -2y'
_space_group.transform_Pp_abc a,b,c;0,0,0

loop_
_space_group_symop_id
_space_group_symop_operation_xyz
1 x,y,z
2 x,-y,z
3 x+1/2,y+1/2,z
4 x+1/2,-y+1/2,z

loop_
_atom_type_symbol
Bi    
Te    

loop_
_atom_site_label
_atom_site_type_symbol
_atom_site_symmetry_multiplicity
_atom_site_Wyckoff_symbol
_atom_site_fract_x
_atom_site_fract_y
_atom_site_fract_z
_atom_site_occupancy
_atom_site_fract_symmform
Bi1  Bi   2 a  0.3106500000  0.0000000000 -0.0906200000  1.0000000000 Dx,0,Dz  
Bi2  Bi   2 a  0.7033300000  0.0000000000  0.1041200000  1.0000000000 Dx,0,Dz  
Bi3  Bi   2 a  0.2934100000  0.0000000000  0.3925100000  1.0000000000 Dx,0,Dz  
Bi4  Bi   2 a  0.6880500000  0.0000000000  0.5873300000  1.0000000000 Dx,0,Dz  
Bi5  Bi   4 b  0.5514200000  0.2520300000  0.3987300000  1.0000000000 Dx,Dy,Dz 
Bi6  Bi   4 b -0.0481450000  0.2437250000  0.6062900000  1.0000000000 Dx,Dy,Dz 
Bi7  Bi   4 b  0.5494800000  0.2581900000  0.8929700000  1.0000000000 Dx,Dy,Dz 
Bi8  Bi   4 b -0.0517950000  0.2519450000  0.0981900000  1.0000000000 Dx,Dy,Dz 
Bi9  Bi   2 a  0.7986200000  0.0000000000 -0.0986400000  1.0000000000 Dx,0,Dz  
Bi10 Bi   2 a  0.1978200000  0.0000000000  0.1011200000  1.0000000000 Dx,0,Dz  
Bi11 Bi   2 a  0.8038300000  0.0000000000  0.4021300000  1.0000000000 Dx,0,Dz  
Bi12 Bi   2 a  0.2026100000  0.0000000000  0.6008600000  1.0000000000 Dx,0,Dz  
Bi13 Bi   2 a  0.0972000000  0.0000000000  0.7956600000  1.0000000000 Dx,0,Dz  
Bi14 Bi   2 a -0.0952600000  0.0000000000  0.7038900000  1.0000000000 Dx,0,Dz  
Bi15 Bi   2 a  0.0991950000  0.0000000000  0.3046700000  1.0000000000 Dx,0,Dz  
Te1  Te   2 a  0.3927550000  0.0000000000  0.1860600000  1.0000000000 Dx,0,Dz  
Te2  Te   2 a  0.6036300000  0.0000000000  0.8130600000  1.0000000000 Dx,0,Dz  
Te3  Te   2 a  0.3969000000  0.0000000000  0.6883900000  1.0000000000 Dx,0,Dz  
Te4  Te   2 a  0.6077600000  0.0000000000  0.3156600000  1.0000000000 Dx,0,Dz  
Te5  Te   4 b  0.6494050000  0.2449050000  0.6849500000  1.0000000000 Dx,Dy,Dz 
Te6  Te   4 b  0.8571700000  0.2488000000  0.3140300000  1.0000000000 Dx,Dy,Dz 
Te7  Te   4 b  0.6422450000  0.2514750000  0.1875000000  1.0000000000 Dx,Dy,Dz 
Te8  Te   4 b  0.8519200000  0.2539800000  0.8162800000  1.0000000000 Dx,Dy,Dz 
Te9  Te   2 a  0.8955000000  0.0000000000  0.1867100000  1.0000000000 Dx,0,Dz  
Te10 Te   2 a -0.0019500000  0.0000000000 -0.0000200000  1.0000000000 Dx,0,Dz  
Te11 Te   2 a  0.0026100000  0.0000000000  0.5020200000  1.0000000000 Dx,0,Dz  
Te12 Te   4 b  0.2548350000  0.2473150000  0.5006300000  1.0000000000 Dx,Dy,Dz 
Te13 Te   4 b  0.2453350000  0.2520650000  0.0010800000  1.0000000000 Dx,Dy,Dz 
Te14 Te   2 a  0.4980700000  0.0000000000  0.0008100000  1.0000000000 Dx,0,Dz  
Te15 Te   2 a  0.5015200000  0.0000000000  0.5030200000  1.0000000000 Dx,0,Dz
