# CIF file created by FINDSYM, version 7.1.3

data_findsym-output
_audit_creation_method FINDSYM

_cell_length_a     8.7731609684
_cell_length_b     8.7731652838
_cell_length_c     20.7828006246
_cell_angle_alpha  89.9999997110
_cell_angle_beta   102.1849109150
_cell_angle_gamma  119.9999489145
_cell_volume       1343.5381716515

_symmetry_space_group_name_H-M "P 1"
_symmetry_Int_Tables_number 1
_space_group.reference_setting '001:P 1'
_space_group.transform_Pp_abc a,b,c;0,0,0

loop_
_space_group_symop_id
_space_group_symop_operation_xyz
1 x,y,z

loop_
_atom_type_symbol
Bi    
Te    

loop_
_atom_site_label
_atom_site_type_symbol
_atom_site_symmetry_multiplicity
_atom_site_Wyckoff_symbol
_atom_site_fract_x
_atom_site_fract_y
_atom_site_fract_z
_atom_site_occupancy
_atom_site_fract_symmform
Bi1  Bi   1 a  0.6063900000  0.2961800000 -0.0840100000  1.0000000000 Dx,Dy,Dz 
Bi2  Bi   1 a  0.6191100000  0.3092900000  0.4114000000  1.0000000000 Dx,Dy,Dz 
Bi3  Bi   1 a -0.0731400000  0.7065200000  0.6039500000  1.0000000000 Dx,Dy,Dz 
Bi4  Bi   1 a  0.1114900000  0.3027900000  0.3989800000  1.0000000000 Dx,Dy,Dz 
Bi5  Bi   1 a  0.8380700000  0.6753600000  0.0961000000  1.0000000000 Dx,Dy,Dz 
Bi6  Bi   1 a  0.0679700000  0.2773700000  0.8917300000  1.0000000000 Dx,Dy,Dz 
Bi7  Bi   1 a -0.0778800000  0.2033000000  0.6077500000  1.0000000000 Dx,Dy,Dz 
Bi8  Bi   1 a  0.1027900000  0.7839300000  0.4067600000  1.0000000000 Dx,Dy,Dz 
Bi9  Bi   1 a  0.8656700000  0.1558100000  0.1052600000  1.0000000000 Dx,Dy,Dz 
Bi10 Bi   1 a  0.0779300000  0.7831200000  0.8968700000  1.0000000000 Dx,Dy,Dz 
Bi11 Bi   1 a  0.5881600000  0.7865500000 -0.0937400000  1.0000000000 Dx,Dy,Dz 
Bi12 Bi   1 a  0.4106900000  0.2044700000  0.6043800000  1.0000000000 Dx,Dy,Dz 
Bi13 Bi   1 a  0.6100600000  0.8041100000  0.4027600000  1.0000000000 Dx,Dy,Dz 
Te1  Te   1 a  0.2053300000  0.6008900000  0.8135400000  1.0000000000 Dx,Dy,Dz 
Te2  Te   1 a  0.7542400000  0.3691600000  0.1844900000  1.0000000000 Dx,Dy,Dz 
Te3  Te   1 a  0.2173200000  0.6059000000  0.3137000000  1.0000000000 Dx,Dy,Dz 
Te4  Te   1 a  0.8065100000  0.4009100000  0.6887700000  1.0000000000 Dx,Dy,Dz 
Te5  Te   1 a  0.7256300000  0.6118400000  0.3179200000  1.0000000000 Dx,Dy,Dz 
Te6  Te   1 a  0.3077800000  0.4128500000  0.6838900000  1.0000000000 Dx,Dy,Dz 
Te7  Te   1 a  0.6923700000  0.5890400000  0.8171700000  1.0000000000 Dx,Dy,Dz 
Te8  Te   1 a  0.2752100000  0.3230200000  0.2044200000  1.0000000000 Dx,Dy,Dz 
Te9  Te   1 a  0.7199500000  0.1094900000  0.3171500000  1.0000000000 Dx,Dy,Dz 
Te10 Te   1 a  0.3144000000  0.8869000000  0.6796200000  1.0000000000 Dx,Dy,Dz 
Te11 Te   1 a  0.6870600000  0.0971900000  0.8145400000  1.0000000000 Dx,Dy,Dz 
Te12 Te   1 a  0.3749000000  0.1618800000  0.1141900000  1.0000000000 Dx,Dy,Dz 
Te13 Te   1 a  0.1635900000  0.0770700000  0.7949900000  1.0000000000 Dx,Dy,Dz 
Te14 Te   1 a  0.7483500000  0.8599000000  0.1865300000  1.0000000000 Dx,Dy,Dz 
Te15 Te   1 a  0.2226700000  0.1090800000  0.3101300000  1.0000000000 Dx,Dy,Dz 
Te16 Te   1 a  0.8323000000 -0.0921300000  0.7005800000  1.0000000000 Dx,Dy,Dz 
Te17 Te   1 a -0.0033900000 -0.0048000000  0.0025200000  1.0000000000 Dx,Dy,Dz 
Te18 Te   1 a  0.0142200000  0.0054300000  0.5007900000  1.0000000000 Dx,Dy,Dz 
Te19 Te   1 a  0.5142300000  0.0058600000  0.5013700000  1.0000000000 Dx,Dy,Dz 
Te20 Te   1 a  0.4863400000 -0.0095600000  0.0059200000  1.0000000000 Dx,Dy,Dz 
Te21 Te   1 a  0.5122400000  0.5090500000  0.5019400000  1.0000000000 Dx,Dy,Dz 
Te22 Te   1 a  0.4806800000  0.4947000000  0.0016200000  1.0000000000 Dx,Dy,Dz 
Te23 Te   1 a -0.0167900000  0.4852600000 -0.0050000000  1.0000000000 Dx,Dy,Dz 
Te24 Te   1 a  0.0174600000  0.5022400000  0.5008200000  1.0000000000 Dx,Dy,Dz
