# CIF file created by FINDSYM, version 7.1.3

data_findsym-output
_audit_creation_method FINDSYM

_cell_length_a     15.1955683624
_cell_length_b     8.7731652838
_cell_length_c     20.7828006246
_cell_angle_alpha  90.0000000000
_cell_angle_beta   104.1061723083
_cell_angle_gamma  90.0000000000
_cell_volume       2687.0763433050

_symmetry_space_group_name_H-M "C 1 2/m 1"
_symmetry_Int_Tables_number 12
_space_group.reference_setting '012:-C 2y'
_space_group.transform_Pp_abc a,b,c;0,0,0

loop_
_space_group_symop_id
_space_group_symop_operation_xyz
1 x,y,z
2 -x,y,-z
3 -x,-y,-z
4 x,-y,z
5 x+1/2,y+1/2,z
6 -x+1/2,y+1/2,-z
7 -x+1/2,-y+1/2,-z
8 x+1/2,-y+1/2,z

loop_
_atom_type_symbol
Bi    
Te    

loop_
_atom_site_label
_atom_site_type_symbol
_atom_site_symmetry_multiplicity
_atom_site_Wyckoff_symbol
_atom_site_fract_x
_atom_site_fract_y
_atom_site_fract_z
_atom_site_occupancy
_atom_site_fract_symmform
Bi1 Bi   4 i  0.3117700000  0.0000000000  0.6608800000  1.0000000000 Dx,0,Dz  
Bi2 Bi   4 i  0.7052000000  0.0000000000  0.8552500000  1.0000000000 Dx,0,Dz  
Bi3 Bi   8 j  0.5509700000  0.2479900000  0.1521900000  1.0000000000 Dx,Dy,Dz 
Bi4 Bi   8 j -0.0493925000  0.2417125000  0.3571550000  1.0000000000 Dx,Dy,Dz 
Bi5 Bi   4 i  0.7985625000  0.0000000000  0.6514200000  1.0000000000 Dx,0,Dz  
Bi6 Bi   4 i  0.1977800000  0.0000000000  0.8508150000  1.0000000000 Dx,0,Dz  
Bi7 Bi   4 i  0.0965775000  0.0000000000  0.5465850000  1.0000000000 Dx,0,Dz  
Te1 Te   4 i  0.3931700000  0.0000000000 -0.0648600000  1.0000000000 Dx,0,Dz  
Te2 Te   4 i  0.6039300000  0.0000000000  0.5628500000  1.0000000000 Dx,0,Dz  
Te3 Te   8 j  0.6482500000  0.2449200000  0.4332700000  1.0000000000 Dx,Dy,Dz 
Te4 Te   8 j  0.8567900000  0.2499100000  0.0632700000  1.0000000000 Dx,Dy,Dz 
Te5 Te   4 i  0.8974700000  0.0000000000 -0.0631700000  1.0000000000 Dx,0,Dz  
Te6 Te   4 i -0.0016375000  0.0000000000  0.7492550000  1.0000000000 Dx,0,Dz  
Te7 Te   8 j  0.2541800000  0.2480900000  0.2494100000  1.0000000000 Dx,Dy,Dz 
Te8 Te   4 i  0.4990200000  0.0000000000  0.7511600000  1.0000000000 Dx,0,Dz
