# CIF file created by FINDSYM, version 7.1.3

data_findsym-output
_audit_creation_method FINDSYM

_cell_length_a     15.1955758369
_cell_length_b     8.7731609684
_cell_length_c     20.7828083038
_cell_angle_alpha  90.0000000000
_cell_angle_beta   104.1062565540
_cell_angle_gamma  90.0000000000
_cell_volume       2687.0763433039

_symmetry_space_group_name_H-M "C 1 m 1"
_symmetry_Int_Tables_number 8
_space_group.reference_setting '008:C -2y'
_space_group.transform_Pp_abc a,b,c;0,0,0

loop_
_space_group_symop_id
_space_group_symop_operation_xyz
1 x,y,z
2 x,-y,z
3 x+1/2,y+1/2,z
4 x+1/2,-y+1/2,z

loop_
_atom_type_symbol
Bi    
Te    

loop_
_atom_site_label
_atom_site_type_symbol
_atom_site_symmetry_multiplicity
_atom_site_Wyckoff_symbol
_atom_site_fract_x
_atom_site_fract_y
_atom_site_fract_z
_atom_site_occupancy
_atom_site_fract_symmform
Bi1  Bi   2 a  0.6893900000  0.0000000000  0.0899600000  1.0000000000 Dx,0,Dz  
Bi2  Bi   2 a  0.2950600000  0.0000000000  0.8942500000  1.0000000000 Dx,0,Dz  
Bi3  Bi   4 b  0.4495250000  0.2449350000  0.6005700000  1.0000000000 Dx,Dy,Dz 
Bi4  Bi   4 b  0.0487900000  0.2413500000  0.3940600000  1.0000000000 Dx,Dy,Dz 
Bi5  Bi   2 a  0.2013100000  0.0000000000  0.0994400000  1.0000000000 Dx,0,Dz  
Bi6  Bi   2 a  0.8018100000  0.0000000000  0.8995300000  1.0000000000 Dx,0,Dz  
Bi7  Bi   2 a  0.7043200000  0.0000000000  0.6032300000  1.0000000000 Dx,0,Dz  
Bi8  Bi   2 a  0.3102400000  0.0000000000  0.4097900000  1.0000000000 Dx,0,Dz  
Bi9  Bi   4 b  0.4500350000  0.2583450000  0.1069300000  1.0000000000 Dx,Dy,Dz 
Bi10 Bi   4 b  0.0508000000  0.2517500000 -0.0983900000  1.0000000000 Dx,Dy,Dz 
Bi11 Bi   2 a  0.2023800000  0.0000000000  0.6033700000  1.0000000000 Dx,0,Dz  
Bi12 Bi   2 a  0.8000300000  0.0000000000  0.4018400000  1.0000000000 Dx,0,Dz  
Bi13 Bi   2 a -0.0967600000  0.0000000000  0.2046000000  1.0000000000 Dx,0,Dz  
Bi14 Bi   2 a  0.3980300000  0.0000000000  0.6947000000  1.0000000000 Dx,0,Dz  
Bi15 Bi   2 a  0.0975800000  0.0000000000  0.2968100000  1.0000000000 Dx,0,Dz  
Te1  Te   2 a  0.6057700000  0.0000000000  0.8135900000  1.0000000000 Dx,0,Dz  
Te2  Te   2 a  0.3961100000  0.0000000000  0.1869600000  1.0000000000 Dx,0,Dz  
Te3  Te   4 b  0.3506750000  0.2444650000  0.3153100000  1.0000000000 Dx,Dy,Dz 
Te4  Te   4 b  0.1437950000  0.2493350000  0.6859700000  1.0000000000 Dx,Dy,Dz 
Te5  Te   2 a  0.1027500000  0.0000000000  0.8126400000  1.0000000000 Dx,0,Dz  
Te6  Te   2 a  0.6035200000  0.0000000000  0.3131500000  1.0000000000 Dx,0,Dz  
Te7  Te   4 b  0.3566650000  0.2491150000  0.8118400000  1.0000000000 Dx,Dy,Dz 
Te8  Te   4 b  0.1472700000  0.2543900000  0.1838400000  1.0000000000 Dx,Dy,Dz 
Te9  Te   2 a  0.8969700000  0.0000000000  0.6857400000  1.0000000000 Dx,0,Dz  
Te10 Te   2 a  0.0004800000  0.0000000000 -0.0003200000  1.0000000000 Dx,0,Dz  
Te11 Te   4 b  0.7457050000  0.2481350000  0.4994500000  1.0000000000 Dx,Dy,Dz 
Te12 Te   2 a  0.5015800000  0.0000000000 -0.0006700000  1.0000000000 Dx,0,Dz  
Te13 Te   2 a -0.0023100000  0.0000000000  0.4954000000  1.0000000000 Dx,0,Dz  
Te14 Te   4 b  0.7532650000  0.2514650000 -0.0016600000  1.0000000000 Dx,Dy,Dz 
Te15 Te   2 a  0.4986900000  0.0000000000  0.5001400000  1.0000000000 Dx,0,Dz
