# CIF file created by FINDSYM, version 7.1.3

data_findsym-output
_audit_creation_method FINDSYM

_cell_length_a     8.7731609684
_cell_length_b     8.7731652838
_cell_length_c     20.7828006246
_cell_angle_alpha  89.9999997110
_cell_angle_beta   102.1849109150
_cell_angle_gamma  119.9999489145
_cell_volume       1343.5381716515

_symmetry_space_group_name_H-M "P 1"
_symmetry_Int_Tables_number 1
_space_group.reference_setting '001:P 1'
_space_group.transform_Pp_abc a,b,c;0,0,0

loop_
_space_group_symop_id
_space_group_symop_operation_xyz
1 x,y,z

loop_
_atom_type_symbol
Bi    
Te    

loop_
_atom_site_label
_atom_site_type_symbol
_atom_site_symmetry_multiplicity
_atom_site_Wyckoff_symbol
_atom_site_fract_x
_atom_site_fract_y
_atom_site_fract_z
_atom_site_occupancy
_atom_site_fract_symmform
Bi1  Bi   1 a  0.6230800000  0.3350300000 -0.0915900000  1.0000000000 Dx,Dy,Dz 
Bi2  Bi   1 a  0.6023500000  0.2836300000  0.4192800000  1.0000000000 Dx,Dy,Dz 
Bi3  Bi   1 a -0.0747100000  0.7074800000  0.6017400000  1.0000000000 Dx,Dy,Dz 
Bi4  Bi   1 a  0.0998800000  0.2873900000  0.3996500000  1.0000000000 Dx,Dy,Dz 
Bi5  Bi   1 a  0.8908700000  0.6894700000  0.0997800000  1.0000000000 Dx,Dy,Dz 
Bi6  Bi   1 a  0.0968500000  0.3064700000  0.8899700000  1.0000000000 Dx,Dy,Dz 
Bi7  Bi   1 a -0.0907700000  0.1987300000  0.6084300000  1.0000000000 Dx,Dy,Dz 
Bi8  Bi   1 a  0.0936500000  0.7825300000  0.4010200000  1.0000000000 Dx,Dy,Dz 
Bi9  Bi   1 a  0.8602600000  0.1756600000  0.0923600000  1.0000000000 Dx,Dy,Dz 
Bi10 Bi   1 a  0.0745300000  0.7925600000  0.8867500000  1.0000000000 Dx,Dy,Dz 
Bi11 Bi   1 a  0.3906900000  0.1787300000  0.0817100000  1.0000000000 Dx,Dy,Dz 
Bi12 Bi   1 a  0.4020900000  0.1882200000  0.6106500000  1.0000000000 Dx,Dy,Dz 
Bi13 Bi   1 a  0.5927200000  0.7817000000  0.4065000000  1.0000000000 Dx,Dy,Dz 
Te1  Te   1 a  0.2258100000  0.6204400000  0.8153700000  1.0000000000 Dx,Dy,Dz 
Te2  Te   1 a  0.7780800000  0.3796600000  0.1833900000  1.0000000000 Dx,Dy,Dz 
Te3  Te   1 a  0.2054500000  0.5883900000  0.3159900000  1.0000000000 Dx,Dy,Dz 
Te4  Te   1 a  0.7910100000  0.3830800000  0.7028400000  1.0000000000 Dx,Dy,Dz 
Te5  Te   1 a  0.6986800000  0.5782800000  0.3225400000  1.0000000000 Dx,Dy,Dz 
Te6  Te   1 a  0.2987800000  0.4041900000  0.6861400000  1.0000000000 Dx,Dy,Dz 
Te7  Te   1 a  0.6867000000  0.6201800000  0.8224100000  1.0000000000 Dx,Dy,Dz 
Te8  Te   1 a  0.3983600000  0.6713700000  0.1230700000  1.0000000000 Dx,Dy,Dz 
Te9  Te   1 a  0.7013500000  0.0882500000  0.3221500000  1.0000000000 Dx,Dy,Dz 
Te10 Te   1 a  0.2974200000  0.8621100000  0.6843100000  1.0000000000 Dx,Dy,Dz 
Te11 Te   1 a  0.7136900000  0.1491300000  0.8015900000  1.0000000000 Dx,Dy,Dz 
Te12 Te   1 a  0.2896900000  0.8786500000  0.1857700000  1.0000000000 Dx,Dy,Dz 
Te13 Te   1 a  0.1801500000  0.0922700000  0.7947400000  1.0000000000 Dx,Dy,Dz 
Te14 Te   1 a  0.7731300000  0.8780800000  0.1907100000  1.0000000000 Dx,Dy,Dz 
Te15 Te   1 a  0.1999100000  0.0823300000  0.3141000000  1.0000000000 Dx,Dy,Dz 
Te16 Te   1 a  0.8412700000 -0.0920200000  0.7017800000  1.0000000000 Dx,Dy,Dz 
Te17 Te   1 a -0.0063300000 -0.0085200000 -0.0012700000  1.0000000000 Dx,Dy,Dz 
Te18 Te   1 a -0.0005000000 -0.0124200000  0.5077400000  1.0000000000 Dx,Dy,Dz 
Te19 Te   1 a  0.4902900000 -0.0259000000  0.5078800000  1.0000000000 Dx,Dy,Dz 
Te20 Te   1 a  0.4982600000 -0.0101300000  0.0002300000  1.0000000000 Dx,Dy,Dz 
Te21 Te   1 a  0.4905000000  0.4802600000  0.5078200000  1.0000000000 Dx,Dy,Dz 
Te22 Te   1 a  0.4913200000  0.5010600000  0.0018900000  1.0000000000 Dx,Dy,Dz 
Te23 Te   1 a -0.0008200000  0.5012100000 -0.0017100000  1.0000000000 Dx,Dy,Dz 
Te24 Te   1 a -0.0037200000  0.4824300000  0.5042100000  1.0000000000 Dx,Dy,Dz
