# CIF file created by FINDSYM, version 7.1.3

data_findsym-output
_audit_creation_method FINDSYM

_cell_length_a     8.7731609684
_cell_length_b     8.7731652838
_cell_length_c     20.7828006246
_cell_angle_alpha  89.9999997110
_cell_angle_beta   102.1849109150
_cell_angle_gamma  119.9999489145
_cell_volume       1343.5381716515

_symmetry_space_group_name_H-M "P 1"
_symmetry_Int_Tables_number 1
_space_group.reference_setting '001:P 1'
_space_group.transform_Pp_abc a,b,c;0,0,0

loop_
_space_group_symop_id
_space_group_symop_operation_xyz
1 x,y,z

loop_
_atom_type_symbol
Bi    
Te    

loop_
_atom_site_label
_atom_site_type_symbol
_atom_site_symmetry_multiplicity
_atom_site_Wyckoff_symbol
_atom_site_fract_x
_atom_site_fract_y
_atom_site_fract_z
_atom_site_occupancy
_atom_site_fract_symmform
Bi1  Bi   1 a  0.4072300000  0.7079400000  0.1087100000  1.0000000000 Dx,Dy,Dz 
Bi2  Bi   1 a  0.6203700000  0.3127200000 -0.0870200000  1.0000000000 Dx,Dy,Dz 
Bi3  Bi   1 a  0.3796100000  0.6910900000  0.5897000000  1.0000000000 Dx,Dy,Dz 
Bi4  Bi   1 a  0.5916000000  0.2965500000  0.3945100000  1.0000000000 Dx,Dy,Dz 
Bi5  Bi   1 a  0.8994400000  0.7094600000  0.6083300000  1.0000000000 Dx,Dy,Dz 
Bi6  Bi   1 a  0.1015300000  0.3034500000  0.4036500000  1.0000000000 Dx,Dy,Dz 
Bi7  Bi   1 a -0.0938500000  0.7000200000  0.1007600000  1.0000000000 Dx,Dy,Dz 
Bi8  Bi   1 a  0.1007300000  0.2920300000  0.8934500000  1.0000000000 Dx,Dy,Dz 
Bi9  Bi   1 a -0.0993800000  0.1922700000  0.6071000000  1.0000000000 Dx,Dy,Dz 
Bi10 Bi   1 a  0.1017900000  0.7993100000  0.4014200000  1.0000000000 Dx,Dy,Dz 
Bi11 Bi   1 a  0.8967800000  0.1976600000  0.0957900000  1.0000000000 Dx,Dy,Dz 
Bi12 Bi   1 a  0.0971400000  0.8038400000  0.8914800000  1.0000000000 Dx,Dy,Dz 
Bi13 Bi   1 a  0.3964900000  0.1946300000  0.1031000000  1.0000000000 Dx,Dy,Dz 
Bi14 Bi   1 a  0.5977300000  0.7981400000 -0.0988900000  1.0000000000 Dx,Dy,Dz 
Bi15 Bi   1 a  0.4031300000  0.2015700000  0.5985300000  1.0000000000 Dx,Dy,Dz 
Bi16 Bi   1 a  0.6037800000  0.8019200000  0.3982500000  1.0000000000 Dx,Dy,Dz 
Bi17 Bi   1 a  0.2929600000  0.8975300000  0.1965700000  1.0000000000 Dx,Dy,Dz 
Bi18 Bi   1 a  0.1938700000  0.0963300000  0.7955500000  1.0000000000 Dx,Dy,Dz 
Bi19 Bi   1 a  0.8040700000 -0.0957600000  0.7050400000  1.0000000000 Dx,Dy,Dz 
Te1  Te   1 a  0.2070200000  0.6025200000  0.8116900000  1.0000000000 Dx,Dy,Dz 
Te2  Te   1 a  0.7862300000  0.3913500000  0.1842500000  1.0000000000 Dx,Dy,Dz 
Te3  Te   1 a  0.2131100000  0.6079800000  0.3131900000  1.0000000000 Dx,Dy,Dz 
Te4  Te   1 a  0.7916500000  0.3954500000  0.6871000000  1.0000000000 Dx,Dy,Dz 
Te5  Te   1 a  0.7141000000  0.6072500000  0.3123200000  1.0000000000 Dx,Dy,Dz 
Te6  Te   1 a  0.2962300000  0.4020700000  0.6835400000  1.0000000000 Dx,Dy,Dz 
Te7  Te   1 a  0.7032000000  0.5960000000  0.8152600000  1.0000000000 Dx,Dy,Dz 
Te8  Te   1 a  0.2860900000  0.3919400000  0.1856300000  1.0000000000 Dx,Dy,Dz 
Te9  Te   1 a  0.7128100000  0.1065600000  0.3122200000  1.0000000000 Dx,Dy,Dz 
Te10 Te   1 a  0.2950700000  0.8937400000  0.6834500000  1.0000000000 Dx,Dy,Dz 
Te11 Te   1 a  0.7013000000  0.1072900000  0.8161300000  1.0000000000 Dx,Dy,Dz 
Te12 Te   1 a  0.7949300000  0.8960900000  0.1858100000  1.0000000000 Dx,Dy,Dz 
Te13 Te   1 a  0.2065500000  0.1041100000  0.3129800000  1.0000000000 Dx,Dy,Dz 
Te14 Te   1 a -0.0035900000 -0.0031000000 -0.0019600000  1.0000000000 Dx,Dy,Dz 
Te15 Te   1 a  0.0022400000  0.0013900000  0.4995700000  1.0000000000 Dx,Dy,Dz 
Te16 Te   1 a  0.5085400000  0.0057600000  0.4987800000  1.0000000000 Dx,Dy,Dz 
Te17 Te   1 a  0.4913300000 -0.0072900000 -0.0004600000  1.0000000000 Dx,Dy,Dz 
Te18 Te   1 a  0.5064900000  0.5018600000  0.4984000000  1.0000000000 Dx,Dy,Dz 
Te19 Te   1 a  0.4885300000  0.4963500000 -0.0035300000  1.0000000000 Dx,Dy,Dz 
Te20 Te   1 a  0.0000700000  0.4995300000  0.0002300000  1.0000000000 Dx,Dy,Dz 
Te21 Te   1 a  0.0030700000  0.5024600000  0.4993200000  1.0000000000 Dx,Dy,Dz
