# CIF file created by FINDSYM, version 7.1.3

data_findsym-output
_audit_creation_method FINDSYM

_cell_length_a     8.7731609684
_cell_length_b     8.7731652838
_cell_length_c     20.7828006246
_cell_angle_alpha  89.9999997110
_cell_angle_beta   102.1849109150
_cell_angle_gamma  119.9999489145
_cell_volume       1343.5381716515

_symmetry_space_group_name_H-M "P 1"
_symmetry_Int_Tables_number 1
_space_group.reference_setting '001:P 1'
_space_group.transform_Pp_abc a,b,c;0,0,0

loop_
_space_group_symop_id
_space_group_symop_operation_xyz
1 x,y,z

loop_
_atom_type_symbol
Bi    
Te    

loop_
_atom_site_label
_atom_site_type_symbol
_atom_site_symmetry_multiplicity
_atom_site_Wyckoff_symbol
_atom_site_fract_x
_atom_site_fract_y
_atom_site_fract_z
_atom_site_occupancy
_atom_site_fract_symmform
Bi1  Bi   1 a  0.3925700000  0.7082800000  0.0987400000  1.0000000000 Dx,Dy,Dz 
Bi2  Bi   1 a  0.5982700000  0.3171500000  0.8972900000  1.0000000000 Dx,Dy,Dz 
Bi3  Bi   1 a  0.4047300000  0.7083700000  0.6010900000  1.0000000000 Dx,Dy,Dz 
Bi4  Bi   1 a  0.6035600000  0.3068500000  0.4002800000  1.0000000000 Dx,Dy,Dz 
Bi5  Bi   1 a -0.0943800000  0.7106100000  0.6006300000  1.0000000000 Dx,Dy,Dz 
Bi6  Bi   1 a  0.1029600000  0.3072900000  0.3986300000  1.0000000000 Dx,Dy,Dz 
Bi7  Bi   1 a -0.0853900000  0.7083900000  0.0987600000  1.0000000000 Dx,Dy,Dz 
Bi8  Bi   1 a  0.1162400000  0.3172200000  0.8972900000  1.0000000000 Dx,Dy,Dz 
Bi9  Bi   1 a -0.0935600000  0.2109500000  0.6015500000  1.0000000000 Dx,Dy,Dz 
Bi10 Bi   1 a  0.1052000000  0.8080400000  0.3993400000  1.0000000000 Dx,Dy,Dz 
Bi11 Bi   1 a -0.0930200000  0.2058700000  0.1081400000  1.0000000000 Dx,Dy,Dz 
Bi12 Bi   1 a  0.1106100000  0.8082700000 -0.0870100000  1.0000000000 Dx,Dy,Dz 
Bi13 Bi   1 a  0.3646400000  0.1308700000  0.0984700000  1.0000000000 Dx,Dy,Dz 
Bi14 Bi   1 a  0.5256900000  0.6611900000  0.8901800000  1.0000000000 Dx,Dy,Dz 
Bi15 Bi   1 a  0.4060600000  0.2109500000  0.6015500000  1.0000000000 Dx,Dy,Dz 
Bi16 Bi   1 a  0.6021700000  0.8080400000  0.3993400000  1.0000000000 Dx,Dy,Dz 
Te1  Te   1 a  0.7719500000  0.3852700000  0.1807700000  1.0000000000 Dx,Dy,Dz 
Te2  Te   1 a  0.2139200000  0.6154800000  0.3123600000  1.0000000000 Dx,Dy,Dz 
Te3  Te   1 a  0.7986600000  0.4113200000  0.6860000000  1.0000000000 Dx,Dy,Dz 
Te4  Te   1 a  0.7127400000  0.6110200000  0.3144700000  1.0000000000 Dx,Dy,Dz 
Te5  Te   1 a  0.2973600000  0.4066400000  0.6880900000  1.0000000000 Dx,Dy,Dz 
Te6  Te   1 a  0.2940500000  0.3852300000  0.1807600000  1.0000000000 Dx,Dy,Dz 
Te7  Te   1 a  0.7105700000  0.1105700000  0.3134300000  1.0000000000 Dx,Dy,Dz 
Te8  Te   1 a  0.2959500000 -0.0967000000  0.6868700000  1.0000000000 Dx,Dy,Dz 
Te9  Te   1 a  0.7316400000  0.1482400000  0.8150100000  1.0000000000 Dx,Dy,Dz 
Te10 Te   1 a  0.2071400000  0.0958500000  0.8184400000  1.0000000000 Dx,Dy,Dz 
Te11 Te   1 a  0.7855900000  0.8865700000  0.1845800000  1.0000000000 Dx,Dy,Dz 
Te12 Te   1 a  0.2134300000  0.1105700000  0.3134400000  1.0000000000 Dx,Dy,Dz 
Te13 Te   1 a  0.7942100000 -0.0967100000  0.6868700000  1.0000000000 Dx,Dy,Dz 
Te14 Te   1 a -0.0130800000 -0.0170500000 -0.0073800000  1.0000000000 Dx,Dy,Dz 
Te15 Te   1 a  0.0066700000  0.0143300000  0.4990100000  1.0000000000 Dx,Dy,Dz 
Te16 Te   1 a  0.5053400000  0.0090200000  0.5016700000  1.0000000000 Dx,Dy,Dz 
Te17 Te   1 a  0.4886200000 -0.0170700000 -0.0073900000  1.0000000000 Dx,Dy,Dz 
Te18 Te   1 a  0.5027100000  0.5069800000  0.4998600000  1.0000000000 Dx,Dy,Dz 
Te19 Te   1 a  0.5073600000  0.5019200000  0.0127900000  1.0000000000 Dx,Dy,Dz 
Te20 Te   1 a -0.0047100000  0.4885200000  0.0020700000  1.0000000000 Dx,Dy,Dz 
Te21 Te   1 a  0.0041200000  0.5069700000  0.4998500000  1.0000000000 Dx,Dy,Dz
