# CIF file created by FINDSYM, version 7.1.3

data_findsym-output
_audit_creation_method FINDSYM

_cell_length_a     15.1955758369
_cell_length_b     8.7731609684
_cell_length_c     20.7828083038
_cell_angle_alpha  90.0000000000
_cell_angle_beta   104.1062565540
_cell_angle_gamma  90.0000000000
_cell_volume       2687.0763433039

_symmetry_space_group_name_H-M "C 1 m 1"
_symmetry_Int_Tables_number 8
_space_group.reference_setting '008:C -2y'
_space_group.transform_Pp_abc a,b,c;0,0,0

loop_
_space_group_symop_id
_space_group_symop_operation_xyz
1 x,y,z
2 x,-y,z
3 x+1/2,y+1/2,z
4 x+1/2,-y+1/2,z

loop_
_atom_type_symbol
Bi    
Te    

loop_
_atom_site_label
_atom_site_type_symbol
_atom_site_symmetry_multiplicity
_atom_site_Wyckoff_symbol
_atom_site_fract_x
_atom_site_fract_y
_atom_site_fract_z
_atom_site_occupancy
_atom_site_fract_symmform
Bi1  Bi   2 a  0.7037400000  0.0000000000  0.1048700000  1.0000000000 Dx,0,Dz  
Bi2  Bi   2 a  0.3016100000  0.0000000000 -0.0975900000  1.0000000000 Dx,0,Dz  
Bi3  Bi   4 b  0.4500450000  0.2506650000  0.6053300000  1.0000000000 Dx,Dy,Dz 
Bi4  Bi   4 b  0.0492800000  0.2500100000  0.3994600000  1.0000000000 Dx,Dy,Dz 
Bi5  Bi   2 a  0.1988600000  0.0000000000  0.0992100000  1.0000000000 Dx,0,Dz  
Bi6  Bi   2 a  0.7990800000  0.0000000000  0.8992100000  1.0000000000 Dx,0,Dz  
Bi7  Bi   2 a  0.7043500000  0.0000000000  0.6029900000  1.0000000000 Dx,0,Dz  
Bi8  Bi   2 a  0.3020400000  0.0000000000  0.4018100000  1.0000000000 Dx,0,Dz  
Bi9  Bi   4 b  0.4495650000  0.2536550000  0.1031300000  1.0000000000 Dx,Dy,Dz 
Bi10 Bi   4 b  0.0493350000  0.2509450000  0.8994000000  1.0000000000 Dx,Dy,Dz 
Bi11 Bi   2 a  0.2024700000  0.0000000000  0.6003800000  1.0000000000 Dx,0,Dz  
Bi12 Bi   2 a  0.7996500000  0.0000000000  0.3975500000  1.0000000000 Dx,0,Dz  
Bi13 Bi   2 a -0.0994500000  0.0000000000  0.1984400000  1.0000000000 Dx,0,Dz  
Bi14 Bi   2 a  0.3987500000  0.0000000000  0.6944800000  1.0000000000 Dx,0,Dz  
Bi15 Bi   2 a -0.0998400000  0.0000000000  0.6950100000  1.0000000000 Dx,0,Dz  
Te1  Te   2 a  0.6027900000  0.0000000000  0.8111000000  1.0000000000 Dx,0,Dz  
Te2  Te   2 a  0.3950200000  0.0000000000  0.1852400000  1.0000000000 Dx,0,Dz  
Te3  Te   4 b  0.3532250000  0.2499150000  0.3105200000  1.0000000000 Dx,Dy,Dz 
Te4  Te   4 b  0.1449900000  0.2491400000  0.6841300000  1.0000000000 Dx,Dy,Dz 
Te5  Te   2 a  0.1041300000  0.0000000000  0.8126200000  1.0000000000 Dx,0,Dz  
Te6  Te   2 a  0.6036300000  0.0000000000  0.3112500000  1.0000000000 Dx,0,Dz  
Te7  Te   4 b  0.3538600000  0.2497100000  0.8116000000  1.0000000000 Dx,Dy,Dz 
Te8  Te   4 b  0.1444950000  0.2499650000  0.1857200000  1.0000000000 Dx,Dy,Dz 
Te9  Te   2 a  0.1038200000  0.0000000000  0.3110300000  1.0000000000 Dx,0,Dz  
Te10 Te   2 a -0.0016000000  0.0000000000 -0.0025200000  1.0000000000 Dx,0,Dz  
Te11 Te   4 b  0.7488900000  0.2495700000  0.4969200000  1.0000000000 Dx,Dy,Dz 
Te12 Te   2 a  0.4990000000  0.0000000000 -0.0033200000  1.0000000000 Dx,0,Dz  
Te13 Te   2 a -0.0019000000  0.0000000000  0.4956900000  1.0000000000 Dx,0,Dz  
Te14 Te   4 b  0.7491050000  0.2495250000 -0.0021800000  1.0000000000 Dx,Dy,Dz 
Te15 Te   2 a  0.4982600000  0.0000000000  0.4944800000  1.0000000000 Dx,0,Dz
