# CIF file created by FINDSYM, version 7.1.3

data_findsym-output
_audit_creation_method FINDSYM

_cell_length_a     8.7731609684
_cell_length_b     8.7731652838
_cell_length_c     20.7828006246
_cell_angle_alpha  89.9999997110
_cell_angle_beta   102.1849109150
_cell_angle_gamma  119.9999489145
_cell_volume       1343.5381716515

_symmetry_space_group_name_H-M "P 1"
_symmetry_Int_Tables_number 1
_space_group.reference_setting '001:P 1'
_space_group.transform_Pp_abc a,b,c;0,0,0

loop_
_space_group_symop_id
_space_group_symop_operation_xyz
1 x,y,z

loop_
_atom_type_symbol
Bi    
Te    

loop_
_atom_site_label
_atom_site_type_symbol
_atom_site_symmetry_multiplicity
_atom_site_Wyckoff_symbol
_atom_site_fract_x
_atom_site_fract_y
_atom_site_fract_z
_atom_site_occupancy
_atom_site_fract_symmform
Bi1  Bi   1 a  0.4011300000  0.7009300000  0.1011200000  1.0000000000 Dx,Dy,Dz 
Bi2  Bi   1 a  0.5976600000  0.2989500000 -0.0970300000  1.0000000000 Dx,Dy,Dz 
Bi3  Bi   1 a  0.3994800000  0.7032800000  0.5983700000  1.0000000000 Dx,Dy,Dz 
Bi4  Bi   1 a  0.5987700000  0.2962300000  0.3984400000  1.0000000000 Dx,Dy,Dz 
Bi5  Bi   1 a -0.0956500000  0.6990900000  0.6036100000  1.0000000000 Dx,Dy,Dz 
Bi6  Bi   1 a  0.0980500000  0.3025300000  0.3979400000  1.0000000000 Dx,Dy,Dz 
Bi7  Bi   1 a  0.8999200000  0.6984500000  0.1004900000  1.0000000000 Dx,Dy,Dz 
Bi8  Bi   1 a  0.0961700000  0.2975300000  0.8982500000  1.0000000000 Dx,Dy,Dz 
Bi9  Bi   1 a -0.0996400000  0.1992400000  0.6020200000  1.0000000000 Dx,Dy,Dz 
Bi10 Bi   1 a  0.1059000000  0.7987000000  0.4000200000  1.0000000000 Dx,Dy,Dz 
Bi11 Bi   1 a -0.0999100000  0.2026000000  0.1011300000  1.0000000000 Dx,Dy,Dz 
Bi12 Bi   1 a  0.0967200000  0.8009000000  0.8997000000  1.0000000000 Dx,Dy,Dz 
Bi13 Bi   1 a  0.3956000000  0.1985300000  0.0958300000  1.0000000000 Dx,Dy,Dz 
Te1  Te   1 a  0.5867100000  0.7937200000  0.8949300000  1.0000000000 Dx,Dy,Dz 
Te2  Te   1 a  0.4002500000  0.2098500000  0.5964700000  1.0000000000 Dx,Dy,Dz 
Te3  Te   1 a  0.6162100000  0.7997700000  0.4087400000  1.0000000000 Dx,Dy,Dz 
Te4  Te   1 a  0.1745300000  0.5857200000  0.7988300000  1.0000000000 Dx,Dy,Dz 
Te5  Te   1 a  0.7947000000  0.3992800000  0.1893600000  1.0000000000 Dx,Dy,Dz 
Te6  Te   1 a  0.2180000000  0.6092200000  0.3154800000  1.0000000000 Dx,Dy,Dz 
Te7  Te   1 a  0.8193300000  0.4058900000  0.7010700000  1.0000000000 Dx,Dy,Dz 
Te8  Te   1 a  0.7041900000  0.6135600000  0.3183500000  1.0000000000 Dx,Dy,Dz 
Te9  Te   1 a  0.2957300000  0.3859100000  0.6814000000  1.0000000000 Dx,Dy,Dz 
Te10 Te   1 a  0.7033900000  0.6111700000  0.8166200000  1.0000000000 Dx,Dy,Dz 
Te11 Te   1 a  0.2927500000  0.3940700000  0.1848100000  1.0000000000 Dx,Dy,Dz 
Te12 Te   1 a  0.7101100000  0.1141300000  0.3116600000  1.0000000000 Dx,Dy,Dz 
Te13 Te   1 a  0.2919000000  0.8965900000  0.6846200000  1.0000000000 Dx,Dy,Dz 
Te14 Te   1 a  0.7030500000  0.0945800000  0.8155000000  1.0000000000 Dx,Dy,Dz 
Te15 Te   1 a  0.2932300000  0.8976300000  0.1849800000  1.0000000000 Dx,Dy,Dz 
Te16 Te   1 a  0.2091900000  0.1041000000  0.8141000000  1.0000000000 Dx,Dy,Dz 
Te17 Te   1 a  0.7931500000  0.8968900000  0.1862600000  1.0000000000 Dx,Dy,Dz 
Te18 Te   1 a  0.2067400000  0.1024300000  0.3136200000  1.0000000000 Dx,Dy,Dz 
Te19 Te   1 a  0.7905300000  0.8945100000  0.6864900000  1.0000000000 Dx,Dy,Dz 
Te20 Te   1 a  0.0104500000  0.0057400000  0.0003500000  1.0000000000 Dx,Dy,Dz 
Te21 Te   1 a -0.0122400000 -0.0079400000  0.4994600000  1.0000000000 Dx,Dy,Dz 
Te22 Te   1 a  0.4997800000  0.0006200000  0.5000600000  1.0000000000 Dx,Dy,Dz 
Te23 Te   1 a  0.5036200000 -0.0043200000 -0.0025500000  1.0000000000 Dx,Dy,Dz 
Te24 Te   1 a  0.4977300000  0.4947700000  0.5013300000  1.0000000000 Dx,Dy,Dz 
Te25 Te   1 a  0.5030300000  0.5062500000 -0.0024300000  1.0000000000 Dx,Dy,Dz 
Te26 Te   1 a  0.0015400000  0.5006000000 -0.0002700000  1.0000000000 Dx,Dy,Dz 
Te27 Te   1 a -0.0018200000  0.4982900000  0.5008300000  1.0000000000 Dx,Dy,Dz
