# CIF file created by FINDSYM, version 7.1.3

data_findsym-output
_audit_creation_method FINDSYM

_cell_length_a     7.5977879185
_cell_length_b     4.3865804842
_cell_length_c     20.3145955848
_cell_angle_alpha  90.0000000000
_cell_angle_beta   97.1615915695
_cell_angle_gamma  90.0000000000
_cell_volume       671.7690858260

_symmetry_space_group_name_H-M "P 1 2/m 1"
_symmetry_Int_Tables_number 10
_space_group.reference_setting '010:-P 2y'
_space_group.transform_Pp_abc a,b,c;0,0,0

loop_
_space_group_symop_id
_space_group_symop_operation_xyz
1 x,y,z
2 -x,y,-z
3 -x,-y,-z
4 x,-y,z

loop_
_atom_type_symbol
Bi    
Te    

loop_
_atom_site_label
_atom_site_type_symbol
_atom_site_symmetry_multiplicity
_atom_site_Wyckoff_symbol
_atom_site_fract_x
_atom_site_fract_y
_atom_site_fract_z
_atom_site_occupancy
_atom_site_fract_symmform
Bi1 Bi   2 m  0.2911475000  0.0000000000 -0.0949725000  1.0000000000 Dx,0,Dz 
Bi2 Bi   2 n  0.2997700000  0.5000000000  0.3993500000  1.0000000000 Dx,0,Dz 
Bi3 Bi   2 m  0.7993700000  0.0000000000  0.3983700000  1.0000000000 Dx,0,Dz 
Bi4 Bi   2 n  0.8239800000  0.5000000000 -0.0879000000  1.0000000000 Dx,0,Dz 
Te1 Te   2 m  0.3807300000  0.0000000000  0.1710300000  1.0000000000 Dx,0,Dz 
Te2 Te   2 n  0.3973400000  0.5000000000  0.6882200000  1.0000000000 Dx,0,Dz 
Te3 Te   2 m  0.8948925000  0.0000000000  0.6869525000  1.0000000000 Dx,0,Dz 
Te4 Te   2 n  0.8954800000  0.5000000000  0.1826600000  1.0000000000 Dx,0,Dz 
Te5 Te   1 f  0.0000000000  0.5000000000  0.5000000000  1.0000000000 0,0,0   
Te6 Te   1 g  0.5000000000  0.0000000000  0.5000000000  1.0000000000 0,0,0   
Te7 Te   1 e  0.5000000000  0.5000000000  0.0000000000  1.0000000000 0,0,0   
